                                   MODFLOW 6
                U.S. GEOLOGICAL SURVEY MODULAR HYDROLOGIC MODEL
                          GROUNDWATER FLOW MODEL (GWF)
                        VERSION 6.4.1 Release 12/09/2022

        MODFLOW 6 compiled Feb 12 2023 12:41:20 with GCC version 11.3.0

This software has been approved for release by the U.S. Geological 
Survey (USGS). Although the software has been subjected to rigorous 
review, the USGS reserves the right to update the software as needed 
pursuant to further analysis and review. No warranty, expressed or 
implied, is made by the USGS or the U.S. Government as to the 
functionality of the software and related material nor shall the 
fact of release constitute any such warranty. Furthermore, the 
software is released on condition that neither the USGS nor the U.S. 
Government shall be held liable for any damages resulting from its 
authorized or unauthorized use. Also refer to the USGS Water 
Resources Software User Rights Notice for complete use, copyright, 
and distribution information.


As a work of the United States Government, this USGS product is 
in the public domain within the United States. You can copy, 
modify, distribute, and perform the work, even for commercial 
purposes, all without asking permission. Additionally, USGS 
waives copyright and related rights in the work worldwide 
through CC0 1.0 Universal Public Domain Dedication 
(https://creativecommons.org/publicdomain/zero/1.0/).

The following GNU Lesser General Public License (LGPL) libraries
are used in this USGS product:

    SPARSKIT version 2.0
      ilut, luson, and qsplit 
      (https://www-users.cse.umn.edu/~saad/software/SPARSKIT/)

    RCM - Reverse Cuthill McKee Ordering
      (https://people.math.sc.edu/Burkardt/f_src/rcm/rcm.html)

    BLAS - Basic Linear Algebra Subprograms Level 1
      (https://people.math.sc.edu/Burkardt/f_src/blas1_d/blas1_d.html)

    SPARSEKIT - Sparse Matrix Utility Package
      amux, dperm, dvperm, rperm, and cperm
      (https://people.sc.fsu.edu/~jburkardt/f77_src/sparsekit/sparsekit.html)

The following BSD-3 License libraries are used in this USGS product:

    Modern Fortran DAG Library
      Copyright (c) 2018, Jacob Williams
      All rights reserved.
      (https://github.com/jacobwilliams/daglib)

MODFLOW 6 compiler options: -fdiagnostics-color=always -cpp -I
src/libmf6core.a.p -I src -I ../src -I src/libmf6_external.a.p -isysroot
/Applications/Xcode.app/Contents/Developer/Platforms/MacOSX.platform/Developer
/SDKs/MacOSX.sdk -D__DYNAMIC__ -D __APPLE__ -isystem
/Users/mike/miniconda3/envs/xmipy/include -march=armv8.3-a
-mmacosx-version-min=10.9 -mlittle-endian -mabi=lp64 -g -O2 -O2 -Wall
-Wpedantic -Wcharacter-truncation -Wno-unused-dummy-argument
-Wno-intrinsic-shadow -Wno-maybe-uninitialized -Wno-uninitialized -std=f2008
-fall-intrinsics -ffpe-summary=overflow -ffpe-trap=overflow,zero,invalid
-ftree-vectorize -fPIC -fno-stack-protector -J src/libmf6core.a.p

System command used to initiate simulation:
/Users/mike/hydrocomputing/projects/2021/003_ModSimple_Phase2/Bearbeitung/MODFLOW6/mf6.4.1/bin_arm/mf6

MODFLOW was compiled using uniform precision.

Real Variables
  KIND: 8
  TINY (smallest non-zero value):    2.225074-308
  HUGE (largest value):    1.797693+308
  PRECISION: 15
  SIZE IN BITS: 64

Integer Variables
  KIND: 4
  HUGE (largest value): 2147483647
  SIZE IN BITS: 32

Long Integer Variables
  KIND: 8
  HUGE (largest value): 9223372036854775807
  SIZE IN BITS: 64

Logical Variables
  KIND: 4
  SIZE IN BITS: 32


 OPENED transriver.dis
 FILE TYPE:DIS6                   UNIT 1005   STATUS:OLD                 
 FORMAT:FORMATTED              ACCESS:SEQUENTIAL          
 ACTION:READ                


 OPENED transriver.ic
 FILE TYPE:IC6                    UNIT 1006   STATUS:OLD                 
 FORMAT:FORMATTED              ACCESS:SEQUENTIAL          
 ACTION:READ                


 OPENED transriver.npf
 FILE TYPE:NPF6                   UNIT 1007   STATUS:OLD                 
 FORMAT:FORMATTED              ACCESS:SEQUENTIAL          
 ACTION:READ                


 OPENED transriver.sto
 FILE TYPE:STO6                   UNIT 1008   STATUS:OLD                 
 FORMAT:FORMATTED              ACCESS:SEQUENTIAL          
 ACTION:READ                


 OPENED transriver.wel
 FILE TYPE:WEL6                   UNIT 1009   STATUS:OLD                 
 FORMAT:FORMATTED              ACCESS:SEQUENTIAL          
 ACTION:READ                


 OPENED transriver.chd
 FILE TYPE:CHD6                   UNIT 1010   STATUS:OLD                 
 FORMAT:FORMATTED              ACCESS:SEQUENTIAL          
 ACTION:READ                


 OPENED transriver.oc
 FILE TYPE:OC6                    UNIT 1011   STATUS:OLD                 
 FORMAT:FORMATTED              ACCESS:SEQUENTIAL          
 ACTION:READ                


 OPENED transriver.riv
 FILE TYPE:RIV6                   UNIT 1012   STATUS:OLD                 
 FORMAT:FORMATTED              ACCESS:SEQUENTIAL          
 ACTION:READ                

 NAMEFILE OPTIONS:
    FLOWS WILL BE SAVED TO BUDGET FILE SPECIFIED IN OUTPUT CONTROL

 DIS -- STRUCTURED GRID DISCRETIZATION PACKAGE, VERSION 2 : 3/27/2014 - INPUT READ FROM UNIT 1005

 Loading input for TRANSRIVER/DIS
 # File generated by Flopy version 3.4.1 on 01/04/2024 at 09:56:20.
   NLAY = 3
   NROW = 15
   NCOL = 10
   DELR = 100.00000000000000
   DELC = 100.00000000000000
   TOP = 15.000000000000000
   BOTM = variable 3D double precision array ranging from -15.000000000000000 to -5.0000000000000000
 Loading input complete...


 NPF -- NODE PROPERTY FLOW PACKAGE, VERSION 1, 3/30/2015 INPUT READ FROM UNIT 1007

 Loading input for TRANSRIVER/NPF
 # File generated by Flopy version 3.4.1 on 01/04/2024 at 09:56:20.
   IPAKCB = 1
   ISAVSPDIS = 1
   ICELLTYPE = 0
   K = variable 1D double precision array ranging from 0.60000000000000002E-5 to 0.50000000000000000
   K33 = variable 1D double precision array ranging from 0.20000000000000000E-2 to 0.29999999999999999
 Loading input complete...

 Setting Discretization Options
    Model length unit [0=UND, 1=FEET, 2=METERS, 3=CENTIMETERS] set as 2
 End Setting Discretization Options

 Setting Discretization Dimensions
    NLAY = 3
    NROW = 15
    NCOL = 10
 End Setting Discretization Dimensions

 Setting Discretization Griddata
    DELR set from input file
    DELC set from input file
    TOP set from input file
    BOTM set from input file
 End Setting Discretization Griddata

 Setting NPF Options
    Cell-by-cell flow information will be saved to binary file whenever ICBCFL is not zero.
    Specific discharge will be calculated at cell centers and written to DATA-SPDIS in budget file when requested.
 End Setting NPF Options

 Setting NPF Griddata
    ICELLTYPE set from input file
    K set from input file
    K33 set from input file
    K22 not provided.  Setting K22 = K.
 End Setting NPF Griddata


 WEL   -- WEL PACKAGE, VERSION 8, 2/22/2014 INPUT READ FROM UNIT 1009
 # File generated by Flopy version 3.4.1 on 01/04/2024 at 09:56:20.

 PROCESSING WEL OPTIONS
    AUXILIARY WEL VARIABLE: CONCENTRATION   
 END OF WEL OPTIONS

 PROCESSING WEL DIMENSIONS
    MAXBOUND =       3
 END OF WEL DIMENSIONS

 RIV   -- RIV PACKAGE, VERSION 8, 2/22/2014 INPUT READ FROM UNIT 1012
 # File generated by Flopy version 3.4.1 on 01/04/2024 at 09:56:20.

 PROCESSING RIV OPTIONS
 END OF RIV OPTIONS

 PROCESSING RIV DIMENSIONS
    MAXBOUND =      12
 END OF RIV DIMENSIONS

 CHD   -- CHD PACKAGE, VERSION 8, 2/22/2014 INPUT READ FROM UNIT 1010
 # File generated by Flopy version 3.4.1 on 01/04/2024 at 09:56:20.

 PROCESSING CHD OPTIONS
    AUXILIARY CHD VARIABLE: CONCENTRATION   
 END OF CHD OPTIONS

 PROCESSING CHD DIMENSIONS
    MAXBOUND =       2
 END OF CHD DIMENSIONS

 IC -- INITIAL CONDITIONS PACKAGE, VERSION 8, 3/28/2015 INPUT READ FROM UNIT 1006
 # File generated by Flopy version 3.4.1 on 01/04/2024 at 09:56:20.
 PROCESSING GRIDDATA

     INITIAL HEAD =   10.00000    
 END PROCESSING GRIDDATA

 STO -- STORAGE PACKAGE, VERSION 1, 5/19/2014 INPUT READ FROM UNIT 1008


 # File generated by Flopy version 3.4.1 on 01/04/2024 at 09:56:20.
 PROCESSING STORAGE OPTIONS
    CELL-BY-CELL FLOW INFORMATION WILL BE SAVED TO BINARY FILE WHENEVER ICBCFL IS NOT ZERO.
 END OF STORAGE OPTIONS
 PROCESSING GRIDDATA

                 ICONVERT = 1

         SPECIFIC STORAGE

               1          2          3          4          5          6          7          8          9         10         11
              12         13         14         15         16         17         18         19         20         21         22
              23         24         25         26         27         28         29         30         31         32         33
              34         35         36         37         38         39         40         41         42         43         44
              45         46         47         48         49         50         51         52         53         54         55
              56         57         58         59         60         61         62         63         64         65         66
              67         68         69         70         71         72         73         74         75         76         77
              78         79         80         81         82         83         84         85         86         87         88
              89         90         91         92         93         94         95         96         97         98         99
             100        101        102        103        104        105        106        107        108        109        110
             111        112        113        114        115        116        117        118        119        120        121
             122        123        124        125        126        127        128        129        130        131        132
             133        134        135        136        137        138        139        140        141        142        143
             144        145        146        147        148        149        150        151        152        153        154
             155        156        157        158        159        160        161        162        163        164        165
             166        167        168        169        170        171        172        173        174        175        176
             177        178        179        180        181        182        183        184        185        186        187
             188        189        190        191        192        193        194        195        196        197        198
             199        200        201        202        203        204        205        206        207        208        209
             210        211        212        213        214        215        216        217        218        219        220
             221        222        223        224        225        226        227        228        229        230        231
             232        233        234        235        236        237        238        239        240        241        242
             243        244        245        246        247        248        249        250        251        252        253
             254        255        256        257        258        259        260        261        262        263        264
             265        266        267        268        269        270        271        272        273        274        275
             276        277        278        279        280        281        282        283        284        285        286
             287        288        289        290        291        292        293        294        295        296        297
             298        299        300        301        302        303        304        305        306        307        308
             309        310        311        312        313        314        315        316        317        318        319
             320        321        322        323        324        325        326        327        328        329        330
             331        332        333        334        335        336        337        338        339        340        341
             342        343        344        345        346        347        348        349        350        351        352
             353        354        355        356        357        358        359        360        361        362        363
             364        365        366        367        368        369        370        371        372        373        374
             375        376        377        378        379        380        381        382        383        384        385
             386        387        388        389        390        391        392        393        394        395        396
             397        398        399        400        401        402        403        404        405        406        407
             408        409        410        411        412        413        414        415        416        417        418
             419        420        421        422        423        424        425        426        427        428        429
             430        431        432        433        434        435        436        437        438        439        440
             441        442        443        444        445        446        447        448        449        450
 .............................................................................................................................
   1   1.000E-06  1.000E-06  1.000E-06  1.000E-06  1.000E-06  1.000E-06  1.000E-06  1.000E-06  1.000E-06  1.000E-06  1.000E-06
       1.000E-06  1.000E-06  1.000E-06  1.000E-06  1.000E-06  1.000E-06  1.000E-06  1.000E-06  1.000E-06  1.000E-06  1.000E-06
       1.000E-06  1.000E-06  1.000E-06  1.000E-06  1.000E-06  1.000E-06  1.000E-06  1.000E-06  1.000E-06  1.000E-06  1.000E-06
       1.000E-06  1.000E-06  1.000E-06  1.000E-06  1.000E-06  1.000E-06  1.000E-06  1.000E-06  1.000E-06  1.000E-06  1.000E-06
       1.000E-06  1.000E-06  1.000E-06  1.000E-06  1.000E-06  1.000E-06  1.000E-06  1.000E-06  1.000E-06  1.000E-06  1.000E-06
       1.000E-06  1.000E-06  1.000E-06  1.000E-06  1.000E-06  1.000E-06  1.000E-06  1.000E-06  1.000E-06  1.000E-06  1.000E-06
       1.000E-06  1.000E-06  1.000E-06  1.000E-06  1.000E-06  1.000E-06  1.000E-06  1.000E-06  1.000E-06  1.000E-06  1.000E-06
       1.000E-06  1.000E-06  1.000E-06  1.000E-06  1.000E-06  1.000E-06  1.000E-06  1.000E-06  1.000E-06  1.000E-06  1.000E-06
       1.000E-06  1.000E-06  1.000E-06  1.000E-06  1.000E-06  1.000E-06  1.000E-06  1.000E-06  1.000E-06  1.000E-06  1.000E-06
       1.000E-06  1.000E-06  1.000E-06  1.000E-06  1.000E-06  1.000E-06  1.000E-06  1.000E-06  1.000E-06  1.000E-06  1.000E-06
       1.000E-06  1.000E-06  1.000E-06  1.000E-06  1.000E-06  1.000E-06  1.000E-06  1.000E-06  1.000E-06  1.000E-06  1.000E-06
       1.000E-06  1.000E-06  1.000E-06  1.000E-06  1.000E-06  1.000E-06  1.000E-06  1.000E-06  1.000E-06  1.000E-06  1.000E-06
       1.000E-06  1.000E-06  1.000E-06  1.000E-06  1.000E-06  1.000E-06  1.000E-06  1.000E-06  1.000E-06  1.000E-06  1.000E-06
       1.000E-06  1.000E-06  1.000E-06  1.000E-06  1.000E-06  1.000E-06  1.000E-06  1.000E-06  1.000E-06  1.000E-06  1.000E-06
       1.000E-06  1.000E-06  1.000E-06  1.000E-06  1.000E-06  1.000E-06  1.000E-06  1.000E-06  1.000E-06  1.000E-06  1.000E-06
       1.000E-06  1.000E-06  1.000E-06  1.000E-06  1.000E-06  1.000E-06  1.000E-06  1.000E-06  1.000E-06  1.000E-06  1.000E-06
       1.000E-06  1.000E-06  1.000E-06  1.000E-06  1.000E-06  1.000E-06  1.000E-06  1.000E-06  1.000E-06  1.000E-06  1.000E-06
       1.000E-06  1.000E-06  1.000E-06  1.000E-06  1.000E-06  1.000E-06  1.000E-06  1.000E-06  1.000E-06  1.000E-06  1.000E-06
       1.000E-06  1.000E-06  1.000E-06  1.000E-06  1.000E-06  1.000E-06  1.000E-06  1.000E-06  1.000E-06  1.000E-06  1.000E-06
       1.000E-06  1.000E-06  1.000E-06  1.000E-06  1.000E-06  1.000E-06  1.000E-06  1.000E-06  1.000E-06  1.000E-06  1.000E-06
       1.000E-06  1.000E-06  1.000E-06  1.000E-06  1.000E-06  1.000E-06  1.000E-06  1.000E-06  1.000E-06  1.000E-06  1.000E-06
       1.000E-06  1.000E-06  1.000E-06  1.000E-06  1.000E-06  1.000E-06  1.000E-06  1.000E-06  1.000E-06  1.000E-06  1.000E-06
       1.000E-06  1.000E-06  1.000E-06  1.000E-06  1.000E-06  1.000E-06  1.000E-06  1.000E-06  1.000E-06  1.000E-06  1.000E-06
       1.000E-06  1.000E-06  1.000E-06  1.000E-06  1.000E-06  1.000E-06  1.000E-06  1.000E-06  1.000E-06  1.000E-06  1.000E-06
       1.000E-06  1.000E-06  1.000E-06  1.000E-06  1.000E-06  1.000E-06  1.000E-06  1.000E-06  1.000E-06  1.000E-06  1.000E-06
       1.000E-06  1.000E-06  1.000E-06  1.000E-06  1.000E-06  1.000E-06  1.000E-06  1.000E-06  1.000E-06  1.000E-06  1.000E-06
       1.000E-06  1.000E-06  1.000E-06  1.000E-06  1.000E-06  1.000E-06  1.000E-06  1.000E-06  1.000E-06  1.000E-06  1.000E-06
       1.000E-06  1.000E-06  1.000E-06  1.000E-06  1.000E-06  1.000E-06  1.000E-06  1.000E-06  1.000E-06  1.000E-06  1.000E-06
       1.000E-06  1.000E-06  1.000E-06  1.000E-06  1.000E-06  1.000E-06  1.000E-06  1.000E-06  1.000E-06  1.000E-06  1.000E-06
       1.000E-06  1.000E-06  1.000E-06  1.000E-06  1.000E-06  1.000E-06  1.000E-06  1.000E-06  1.000E-06  1.000E-06  1.000E-06
       1.000E-06  1.000E-06  1.000E-06  1.000E-06  1.000E-06  1.000E-06  1.000E-06  1.000E-06  1.000E-06  1.000E-06  1.000E-06
       1.000E-06  1.000E-06  1.000E-06  1.000E-06  1.000E-06  1.000E-06  1.000E-06  1.000E-06  1.000E-06  1.000E-06  1.000E-06
       1.000E-06  1.000E-06  1.000E-06  1.000E-06  1.000E-06  1.000E-06  1.000E-06  1.000E-06  1.000E-06  1.000E-06  1.000E-06
       1.000E-06  1.000E-06  1.000E-06  1.000E-06  1.000E-06  1.000E-06  1.000E-06  1.000E-06  1.000E-06  1.000E-06  1.000E-06
       1.000E-06  1.000E-06  1.000E-06  1.000E-06  1.000E-06  1.000E-06  1.000E-06  1.000E-06  1.000E-06  1.000E-06  1.000E-06
       1.000E-06  1.000E-06  1.000E-06  1.000E-06  1.000E-06  1.000E-06  1.000E-06  1.000E-06  1.000E-06  1.000E-06  1.000E-06
       1.000E-06  1.000E-06  1.000E-06  1.000E-06  1.000E-06  1.000E-06  1.000E-06  1.000E-06  1.000E-06  1.000E-06  1.000E-06
       1.000E-06  1.000E-06  1.000E-06  1.000E-06  1.000E-06  1.000E-06  1.000E-06  1.000E-06  1.000E-06  1.000E-06  1.000E-06
       1.000E-06  1.000E-06  1.000E-06  1.000E-06  1.000E-06  1.000E-06  1.000E-06  1.000E-06  1.000E-06  1.000E-06  1.000E-06
       1.000E-06  1.000E-06  1.000E-06  1.000E-06  1.000E-06  1.000E-06  1.000E-06  1.000E-06  1.000E-06  1.000E-06  1.000E-06
       1.000E-06  1.000E-06  1.000E-06  1.000E-06  1.000E-06  1.000E-06  1.000E-06  1.000E-06  1.000E-06  1.000E-06

           SPECIFIC YIELD

               1          2          3          4          5          6          7          8          9         10         11
              12         13         14         15         16         17         18         19         20         21         22
              23         24         25         26         27         28         29         30         31         32         33
              34         35         36         37         38         39         40         41         42         43         44
              45         46         47         48         49         50         51         52         53         54         55
              56         57         58         59         60         61         62         63         64         65         66
              67         68         69         70         71         72         73         74         75         76         77
              78         79         80         81         82         83         84         85         86         87         88
              89         90         91         92         93         94         95         96         97         98         99
             100        101        102        103        104        105        106        107        108        109        110
             111        112        113        114        115        116        117        118        119        120        121
             122        123        124        125        126        127        128        129        130        131        132
             133        134        135        136        137        138        139        140        141        142        143
             144        145        146        147        148        149        150        151        152        153        154
             155        156        157        158        159        160        161        162        163        164        165
             166        167        168        169        170        171        172        173        174        175        176
             177        178        179        180        181        182        183        184        185        186        187
             188        189        190        191        192        193        194        195        196        197        198
             199        200        201        202        203        204        205        206        207        208        209
             210        211        212        213        214        215        216        217        218        219        220
             221        222        223        224        225        226        227        228        229        230        231
             232        233        234        235        236        237        238        239        240        241        242
             243        244        245        246        247        248        249        250        251        252        253
             254        255        256        257        258        259        260        261        262        263        264
             265        266        267        268        269        270        271        272        273        274        275
             276        277        278        279        280        281        282        283        284        285        286
             287        288        289        290        291        292        293        294        295        296        297
             298        299        300        301        302        303        304        305        306        307        308
             309        310        311        312        313        314        315        316        317        318        319
             320        321        322        323        324        325        326        327        328        329        330
             331        332        333        334        335        336        337        338        339        340        341
             342        343        344        345        346        347        348        349        350        351        352
             353        354        355        356        357        358        359        360        361        362        363
             364        365        366        367        368        369        370        371        372        373        374
             375        376        377        378        379        380        381        382        383        384        385
             386        387        388        389        390        391        392        393        394        395        396
             397        398        399        400        401        402        403        404        405        406        407
             408        409        410        411        412        413        414        415        416        417        418
             419        420        421        422        423        424        425        426        427        428        429
             430        431        432        433        434        435        436        437        438        439        440
             441        442        443        444        445        446        447        448        449        450
 .............................................................................................................................
   1   0.200      0.200      0.200      0.200      0.200      0.200      0.200      0.200      0.200      0.200      0.200    
       0.200      0.200      0.200      0.200      0.200      0.200      0.200      0.200      0.200      0.200      0.200    
       0.200      0.200      0.200      0.200      0.200      0.200      0.200      0.200      0.200      0.200      0.200    
       0.200      0.200      0.200      0.200      0.200      0.200      0.200      0.200      0.200      0.200      0.200    
       0.200      0.200      0.200      0.200      0.200      0.200      0.200      0.200      0.200      0.200      0.200    
       0.200      0.200      0.200      0.200      0.200      0.200      0.200      0.200      0.200      0.200      0.200    
       0.200      0.200      0.200      0.200      0.200      0.200      0.200      0.200      0.200      0.200      0.200    
       0.200      0.200      0.200      0.200      0.200      0.200      0.200      0.200      0.200      0.200      0.200    
       0.200      0.200      0.200      0.200      0.200      0.200      0.200      0.200      0.200      0.200      0.200    
       0.200      0.200      0.200      0.200      0.200      0.200      0.200      0.200      0.200      0.200      0.200    
       0.200      0.200      0.200      0.200      0.200      0.200      0.200      0.200      0.200      0.200      0.200    
       0.200      0.200      0.200      0.200      0.200      0.200      0.200      0.200      0.200      0.200      0.200    
       0.200      0.200      0.200      0.200      0.200      0.200      0.200      0.200      0.200      0.200      0.200    
       0.200      0.200      0.200      0.200      0.200      0.200      0.200      0.200      0.200      0.200      0.200    
       0.200      0.200      0.200      0.200      0.200      0.200      0.200      0.200      0.200      0.200      0.200    
       0.200      0.200      0.200      0.200      0.200      0.200      0.200      0.200      0.200      0.200      0.200    
       0.200      0.200      0.200      0.200      0.200      0.200      0.200      0.200      0.200      0.200      0.200    
       0.200      0.200      0.200      0.200      0.200      0.200      0.200      0.200      0.200      0.200      0.200    
       0.200      0.200      0.200      0.200      0.200      0.200      0.200      0.200      0.200      0.200      0.200    
       0.200      0.200      0.200      0.200      0.200      0.200      0.200      0.200      0.200      0.200      0.200    
       0.200      0.200      0.200      0.200      0.200      0.200      0.200      0.200      0.200      0.200      0.200    
       0.200      0.200      0.200      0.200      0.200      0.200      0.200      0.200      0.200      0.200      0.200    
       0.200      0.200      0.200      0.200      0.200      0.200      0.200      0.200      0.200      0.200      0.200    
       0.200      0.200      0.200      0.200      0.200      0.200      0.200      0.200      0.200      0.200      0.200    
       0.200      0.200      0.200      0.200      0.200      0.200      0.200      0.200      0.200      0.200      0.200    
       0.200      0.200      0.200      0.200      0.200      0.200      0.200      0.200      0.200      0.200      0.200    
       0.200      0.200      0.200      0.200      0.200      0.200      0.200      0.200      0.200      0.200      0.200    
       0.200      0.200      0.200      0.200      0.200      0.200      0.200      0.200      0.200      0.200      0.200    
       0.200      0.200      0.200      0.200      0.200      0.200      0.200      0.200      0.200      0.200      0.200    
       0.200      0.200      0.200      0.200      0.200      0.200      0.200      0.200      0.200      0.200      0.200    
       0.200      0.200      0.200      0.200      0.200      0.200      0.200      0.200      0.200      0.200      0.200    
       0.200      0.200      0.200      0.200      0.200      0.200      0.200      0.200      0.200      0.200      0.200    
       0.200      0.200      0.200      0.200      0.200      0.200      0.200      0.200      0.200      0.200      0.200    
       0.200      0.200      0.200      0.200      0.200      0.200      0.200      0.200      0.200      0.200      0.200    
       0.200      0.200      0.200      0.200      0.200      0.200      0.200      0.200      0.200      0.200      0.200    
       0.200      0.200      0.200      0.200      0.200      0.200      0.200      0.200      0.200      0.200      0.200    
       0.200      0.200      0.200      0.200      0.200      0.200      0.200      0.200      0.200      0.200      0.200    
       0.200      0.200      0.200      0.200      0.200      0.200      0.200      0.200      0.200      0.200      0.200    
       0.200      0.200      0.200      0.200      0.200      0.200      0.200      0.200      0.200      0.200      0.200    
       0.200      0.200      0.200      0.200      0.200      0.200      0.200      0.200      0.200      0.200      0.200    
       0.200      0.200      0.200      0.200      0.200      0.200      0.200      0.200      0.200      0.200    
 END PROCESSING GRIDDATA
    BINARY GRID INFORMATION WILL BE WRITTEN TO:
      UNIT NUMBER: 1025
      FILE NAME: transriver.dis.grb

 OPENED transriver.dis.grb
 FILE TYPE:DATA(BINARY)   UNIT 1025   STATUS:REPLACE             
 FORMAT:UNFORMATTED            ACCESS:STREAM              
 ACTION:READWRITE           

      THE LAST TIME STEP WILL BE PRINTED
      THE LAST TIME STEP WILL BE PRINTED
 # File generated by Flopy version 3.4.1 on 01/04/2024 at 09:56:20.

 PROCESSING OC OPTIONS

    BUDGET INFORMATION WILL BE WRITTEN TO:
      UNIT NUMBER: 1026
      FILE NAME: transriver.bud

 OPENED transriver.bud
 FILE TYPE:DATA(BINARY)   UNIT 1026   STATUS:REPLACE             
 FORMAT:UNFORMATTED            ACCESS:STREAM              
 ACTION:READWRITE           

    HEAD INFORMATION WILL BE WRITTEN TO:
      UNIT NUMBER: 1027
      FILE NAME: transriver.hds

 OPENED transriver.hds
 FILE TYPE:DATA(BINARY)   UNIT 1027   STATUS:REPLACE             
 FORMAT:UNFORMATTED            ACCESS:STREAM              
 ACTION:READWRITE           

 END OF OC OPTIONS

start timestep kper="1" kstp="1" mode="normal"


 BEGIN READING OUTPUT CONTROL FOR STRESS PERIOD 1
      ALL TIME STEPS WILL BE SAVED
      ALL TIME STEPS WILL BE SAVED

 END READING OUTPUT CONTROL FOR STRESS PERIOD 1


 PROCESSING STORAGE PERIOD DATA
 END PROCESSING STORAGE PERIOD DATA


 STRESS PERIOD 1 IS STEADY-STATE


 REUSING WELS FROM LAST STRESS PERIOD
 UBDSV1 SAVING           STO-SS ON UNIT   1026 AT TIME STEP      1, STRESS PERIOD      1
 UBDSV1 SAVING           STO-SY ON UNIT   1026 AT TIME STEP      1, STRESS PERIOD      1
 UBDSV1 SAVING     FLOW-JA-FACE ON UNIT   1026 AT TIME STEP      1, STRESS PERIOD      1
 UBDSV06 SAVING       DATA-SPDIS IN MODEL TRANSRIVER       PACKAGE NPF             CONNECTED TO MODEL TRANSRIVER       PACKAGE NPF              ON UNIT   1026 AT TIME STEP      1, STRESS PERIOD      1
 UBDSV06 SAVING              WEL IN MODEL TRANSRIVER       PACKAGE TRANSRIVER      CONNECTED TO MODEL TRANSRIVER       PACKAGE WEL-1            ON UNIT   1026 AT TIME STEP      1, STRESS PERIOD      1
 UBDSV06 SAVING              RIV IN MODEL TRANSRIVER       PACKAGE TRANSRIVER      CONNECTED TO MODEL TRANSRIVER       PACKAGE RIV-1            ON UNIT   1026 AT TIME STEP      1, STRESS PERIOD      1
 UBDSV06 SAVING              CHD IN MODEL TRANSRIVER       PACKAGE TRANSRIVER      CONNECTED TO MODEL TRANSRIVER       PACKAGE CHD-1            ON UNIT   1026 AT TIME STEP      1, STRESS PERIOD      1

 HEAD WILL BE SAVED ON UNIT 1027 AT END OF TIME STEP    1, STRESS PERIOD    1


  VOLUME BUDGET FOR ENTIRE MODEL AT END OF TIME STEP    1, STRESS PERIOD   1
  ---------------------------------------------------------------------------------------------------

     CUMULATIVE VOLUME      L**3       RATES FOR THIS TIME STEP      L**3/T          PACKAGE NAME    
     ------------------                 ------------------------                     ----------------

           IN:                                      IN:
           ---                                      ---
              STO-SS =           0.0000                STO-SS =           0.0000     STORAGE                          
              STO-SY =           0.0000                STO-SY =           0.0000     STORAGE                          
                 WEL =           0.0000                   WEL =           0.0000     WEL-1                            
                 RIV =           2.0333                   RIV =           2.0333     RIV-1                            
                 CHD =           0.0000                   CHD =           0.0000     CHD-1                            

            TOTAL IN =           2.0333              TOTAL IN =           2.0333

          OUT:                                     OUT:
          ----                                     ----
              STO-SS =           0.0000                STO-SS =           0.0000     STORAGE                          
              STO-SY =           0.0000                STO-SY =           0.0000     STORAGE                          
                 WEL =           0.0000                   WEL =           0.0000     WEL-1                            
                 RIV =           0.0000                   RIV =           0.0000     RIV-1                            
                 CHD =           2.0430                   CHD =           2.0430     CHD-1                            

           TOTAL OUT =           2.0430             TOTAL OUT =           2.0430

            IN - OUT =      -9.6920E-03              IN - OUT =      -9.6920E-03

 PERCENT DISCREPANCY =          -0.48     PERCENT DISCREPANCY =          -0.48




         TIME SUMMARY AT END OF TIME STEP    1 IN STRESS PERIOD    1
                    SECONDS     MINUTES      HOURS       DAYS        YEARS
                    -----------------------------------------------------------
   TIME STEP LENGTH  86400.      1440.0      24.000      1.0000     2.73785E-03
 STRESS PERIOD TIME  86400.      1440.0      24.000      1.0000     2.73785E-03
         TOTAL TIME  86400.      1440.0      24.000      1.0000     2.73785E-03


end timestep


start timestep kper="2" kstp="1" mode="normal"


 END OF FILE DETECTED IN OUTPUT CONTROL.
 CURRENT OUTPUT CONTROL SETTINGS WILL BE 
 REPEATED UNTIL THE END OF THE SIMULATION.

 OUTPUT CONTROL FOR STRESS PERIOD 2 IS REPEATED USING SETTINGS FROM A PREVIOUS STRESS PERIOD.


 PROCESSING STORAGE PERIOD DATA
 END PROCESSING STORAGE PERIOD DATA


 STRESS PERIOD 2 IS TRANSIENT


 REUSING RIVS FROM LAST STRESS PERIOD

 REUSING CHDS FROM LAST STRESS PERIOD
 UBDSV1 SAVING           STO-SS ON UNIT   1026 AT TIME STEP      1, STRESS PERIOD      2
 UBDSV1 SAVING           STO-SY ON UNIT   1026 AT TIME STEP      1, STRESS PERIOD      2
 UBDSV1 SAVING     FLOW-JA-FACE ON UNIT   1026 AT TIME STEP      1, STRESS PERIOD      2
 UBDSV06 SAVING       DATA-SPDIS IN MODEL TRANSRIVER       PACKAGE NPF             CONNECTED TO MODEL TRANSRIVER       PACKAGE NPF              ON UNIT   1026 AT TIME STEP      1, STRESS PERIOD      2
 UBDSV06 SAVING              WEL IN MODEL TRANSRIVER       PACKAGE TRANSRIVER      CONNECTED TO MODEL TRANSRIVER       PACKAGE WEL-1            ON UNIT   1026 AT TIME STEP      1, STRESS PERIOD      2
 UBDSV06 SAVING              RIV IN MODEL TRANSRIVER       PACKAGE TRANSRIVER      CONNECTED TO MODEL TRANSRIVER       PACKAGE RIV-1            ON UNIT   1026 AT TIME STEP      1, STRESS PERIOD      2
 UBDSV06 SAVING              CHD IN MODEL TRANSRIVER       PACKAGE TRANSRIVER      CONNECTED TO MODEL TRANSRIVER       PACKAGE CHD-1            ON UNIT   1026 AT TIME STEP      1, STRESS PERIOD      2

 HEAD WILL BE SAVED ON UNIT 1027 AT END OF TIME STEP    1, STRESS PERIOD    2

end timestep


start timestep kper="2" kstp="2" mode="normal"

 UBDSV1 SAVING           STO-SS ON UNIT   1026 AT TIME STEP      2, STRESS PERIOD      2
 UBDSV1 SAVING           STO-SY ON UNIT   1026 AT TIME STEP      2, STRESS PERIOD      2
 UBDSV1 SAVING     FLOW-JA-FACE ON UNIT   1026 AT TIME STEP      2, STRESS PERIOD      2
 UBDSV06 SAVING       DATA-SPDIS IN MODEL TRANSRIVER       PACKAGE NPF             CONNECTED TO MODEL TRANSRIVER       PACKAGE NPF              ON UNIT   1026 AT TIME STEP      2, STRESS PERIOD      2
 UBDSV06 SAVING              WEL IN MODEL TRANSRIVER       PACKAGE TRANSRIVER      CONNECTED TO MODEL TRANSRIVER       PACKAGE WEL-1            ON UNIT   1026 AT TIME STEP      2, STRESS PERIOD      2
 UBDSV06 SAVING              RIV IN MODEL TRANSRIVER       PACKAGE TRANSRIVER      CONNECTED TO MODEL TRANSRIVER       PACKAGE RIV-1            ON UNIT   1026 AT TIME STEP      2, STRESS PERIOD      2
 UBDSV06 SAVING              CHD IN MODEL TRANSRIVER       PACKAGE TRANSRIVER      CONNECTED TO MODEL TRANSRIVER       PACKAGE CHD-1            ON UNIT   1026 AT TIME STEP      2, STRESS PERIOD      2

 HEAD WILL BE SAVED ON UNIT 1027 AT END OF TIME STEP    2, STRESS PERIOD    2

end timestep


start timestep kper="2" kstp="3" mode="normal"

 UBDSV1 SAVING           STO-SS ON UNIT   1026 AT TIME STEP      3, STRESS PERIOD      2
 UBDSV1 SAVING           STO-SY ON UNIT   1026 AT TIME STEP      3, STRESS PERIOD      2
 UBDSV1 SAVING     FLOW-JA-FACE ON UNIT   1026 AT TIME STEP      3, STRESS PERIOD      2
 UBDSV06 SAVING       DATA-SPDIS IN MODEL TRANSRIVER       PACKAGE NPF             CONNECTED TO MODEL TRANSRIVER       PACKAGE NPF              ON UNIT   1026 AT TIME STEP      3, STRESS PERIOD      2
 UBDSV06 SAVING              WEL IN MODEL TRANSRIVER       PACKAGE TRANSRIVER      CONNECTED TO MODEL TRANSRIVER       PACKAGE WEL-1            ON UNIT   1026 AT TIME STEP      3, STRESS PERIOD      2
 UBDSV06 SAVING              RIV IN MODEL TRANSRIVER       PACKAGE TRANSRIVER      CONNECTED TO MODEL TRANSRIVER       PACKAGE RIV-1            ON UNIT   1026 AT TIME STEP      3, STRESS PERIOD      2
 UBDSV06 SAVING              CHD IN MODEL TRANSRIVER       PACKAGE TRANSRIVER      CONNECTED TO MODEL TRANSRIVER       PACKAGE CHD-1            ON UNIT   1026 AT TIME STEP      3, STRESS PERIOD      2

 HEAD WILL BE SAVED ON UNIT 1027 AT END OF TIME STEP    3, STRESS PERIOD    2

end timestep


start timestep kper="2" kstp="4" mode="normal"

 UBDSV1 SAVING           STO-SS ON UNIT   1026 AT TIME STEP      4, STRESS PERIOD      2
 UBDSV1 SAVING           STO-SY ON UNIT   1026 AT TIME STEP      4, STRESS PERIOD      2
 UBDSV1 SAVING     FLOW-JA-FACE ON UNIT   1026 AT TIME STEP      4, STRESS PERIOD      2
 UBDSV06 SAVING       DATA-SPDIS IN MODEL TRANSRIVER       PACKAGE NPF             CONNECTED TO MODEL TRANSRIVER       PACKAGE NPF              ON UNIT   1026 AT TIME STEP      4, STRESS PERIOD      2
 UBDSV06 SAVING              WEL IN MODEL TRANSRIVER       PACKAGE TRANSRIVER      CONNECTED TO MODEL TRANSRIVER       PACKAGE WEL-1            ON UNIT   1026 AT TIME STEP      4, STRESS PERIOD      2
 UBDSV06 SAVING              RIV IN MODEL TRANSRIVER       PACKAGE TRANSRIVER      CONNECTED TO MODEL TRANSRIVER       PACKAGE RIV-1            ON UNIT   1026 AT TIME STEP      4, STRESS PERIOD      2
 UBDSV06 SAVING              CHD IN MODEL TRANSRIVER       PACKAGE TRANSRIVER      CONNECTED TO MODEL TRANSRIVER       PACKAGE CHD-1            ON UNIT   1026 AT TIME STEP      4, STRESS PERIOD      2

 HEAD WILL BE SAVED ON UNIT 1027 AT END OF TIME STEP    4, STRESS PERIOD    2

end timestep


start timestep kper="2" kstp="5" mode="normal"

 UBDSV1 SAVING           STO-SS ON UNIT   1026 AT TIME STEP      5, STRESS PERIOD      2
 UBDSV1 SAVING           STO-SY ON UNIT   1026 AT TIME STEP      5, STRESS PERIOD      2
 UBDSV1 SAVING     FLOW-JA-FACE ON UNIT   1026 AT TIME STEP      5, STRESS PERIOD      2
 UBDSV06 SAVING       DATA-SPDIS IN MODEL TRANSRIVER       PACKAGE NPF             CONNECTED TO MODEL TRANSRIVER       PACKAGE NPF              ON UNIT   1026 AT TIME STEP      5, STRESS PERIOD      2
 UBDSV06 SAVING              WEL IN MODEL TRANSRIVER       PACKAGE TRANSRIVER      CONNECTED TO MODEL TRANSRIVER       PACKAGE WEL-1            ON UNIT   1026 AT TIME STEP      5, STRESS PERIOD      2
 UBDSV06 SAVING              RIV IN MODEL TRANSRIVER       PACKAGE TRANSRIVER      CONNECTED TO MODEL TRANSRIVER       PACKAGE RIV-1            ON UNIT   1026 AT TIME STEP      5, STRESS PERIOD      2
 UBDSV06 SAVING              CHD IN MODEL TRANSRIVER       PACKAGE TRANSRIVER      CONNECTED TO MODEL TRANSRIVER       PACKAGE CHD-1            ON UNIT   1026 AT TIME STEP      5, STRESS PERIOD      2

 HEAD WILL BE SAVED ON UNIT 1027 AT END OF TIME STEP    5, STRESS PERIOD    2

end timestep


start timestep kper="2" kstp="6" mode="normal"

 UBDSV1 SAVING           STO-SS ON UNIT   1026 AT TIME STEP      6, STRESS PERIOD      2
 UBDSV1 SAVING           STO-SY ON UNIT   1026 AT TIME STEP      6, STRESS PERIOD      2
 UBDSV1 SAVING     FLOW-JA-FACE ON UNIT   1026 AT TIME STEP      6, STRESS PERIOD      2
 UBDSV06 SAVING       DATA-SPDIS IN MODEL TRANSRIVER       PACKAGE NPF             CONNECTED TO MODEL TRANSRIVER       PACKAGE NPF              ON UNIT   1026 AT TIME STEP      6, STRESS PERIOD      2
 UBDSV06 SAVING              WEL IN MODEL TRANSRIVER       PACKAGE TRANSRIVER      CONNECTED TO MODEL TRANSRIVER       PACKAGE WEL-1            ON UNIT   1026 AT TIME STEP      6, STRESS PERIOD      2
 UBDSV06 SAVING              RIV IN MODEL TRANSRIVER       PACKAGE TRANSRIVER      CONNECTED TO MODEL TRANSRIVER       PACKAGE RIV-1            ON UNIT   1026 AT TIME STEP      6, STRESS PERIOD      2
 UBDSV06 SAVING              CHD IN MODEL TRANSRIVER       PACKAGE TRANSRIVER      CONNECTED TO MODEL TRANSRIVER       PACKAGE CHD-1            ON UNIT   1026 AT TIME STEP      6, STRESS PERIOD      2

 HEAD WILL BE SAVED ON UNIT 1027 AT END OF TIME STEP    6, STRESS PERIOD    2

end timestep


start timestep kper="2" kstp="7" mode="normal"

 UBDSV1 SAVING           STO-SS ON UNIT   1026 AT TIME STEP      7, STRESS PERIOD      2
 UBDSV1 SAVING           STO-SY ON UNIT   1026 AT TIME STEP      7, STRESS PERIOD      2
 UBDSV1 SAVING     FLOW-JA-FACE ON UNIT   1026 AT TIME STEP      7, STRESS PERIOD      2
 UBDSV06 SAVING       DATA-SPDIS IN MODEL TRANSRIVER       PACKAGE NPF             CONNECTED TO MODEL TRANSRIVER       PACKAGE NPF              ON UNIT   1026 AT TIME STEP      7, STRESS PERIOD      2
 UBDSV06 SAVING              WEL IN MODEL TRANSRIVER       PACKAGE TRANSRIVER      CONNECTED TO MODEL TRANSRIVER       PACKAGE WEL-1            ON UNIT   1026 AT TIME STEP      7, STRESS PERIOD      2
 UBDSV06 SAVING              RIV IN MODEL TRANSRIVER       PACKAGE TRANSRIVER      CONNECTED TO MODEL TRANSRIVER       PACKAGE RIV-1            ON UNIT   1026 AT TIME STEP      7, STRESS PERIOD      2
 UBDSV06 SAVING              CHD IN MODEL TRANSRIVER       PACKAGE TRANSRIVER      CONNECTED TO MODEL TRANSRIVER       PACKAGE CHD-1            ON UNIT   1026 AT TIME STEP      7, STRESS PERIOD      2

 HEAD WILL BE SAVED ON UNIT 1027 AT END OF TIME STEP    7, STRESS PERIOD    2

end timestep


start timestep kper="2" kstp="8" mode="normal"

 UBDSV1 SAVING           STO-SS ON UNIT   1026 AT TIME STEP      8, STRESS PERIOD      2
 UBDSV1 SAVING           STO-SY ON UNIT   1026 AT TIME STEP      8, STRESS PERIOD      2
 UBDSV1 SAVING     FLOW-JA-FACE ON UNIT   1026 AT TIME STEP      8, STRESS PERIOD      2
 UBDSV06 SAVING       DATA-SPDIS IN MODEL TRANSRIVER       PACKAGE NPF             CONNECTED TO MODEL TRANSRIVER       PACKAGE NPF              ON UNIT   1026 AT TIME STEP      8, STRESS PERIOD      2
 UBDSV06 SAVING              WEL IN MODEL TRANSRIVER       PACKAGE TRANSRIVER      CONNECTED TO MODEL TRANSRIVER       PACKAGE WEL-1            ON UNIT   1026 AT TIME STEP      8, STRESS PERIOD      2
 UBDSV06 SAVING              RIV IN MODEL TRANSRIVER       PACKAGE TRANSRIVER      CONNECTED TO MODEL TRANSRIVER       PACKAGE RIV-1            ON UNIT   1026 AT TIME STEP      8, STRESS PERIOD      2
 UBDSV06 SAVING              CHD IN MODEL TRANSRIVER       PACKAGE TRANSRIVER      CONNECTED TO MODEL TRANSRIVER       PACKAGE CHD-1            ON UNIT   1026 AT TIME STEP      8, STRESS PERIOD      2

 HEAD WILL BE SAVED ON UNIT 1027 AT END OF TIME STEP    8, STRESS PERIOD    2

end timestep


start timestep kper="2" kstp="9" mode="normal"

 UBDSV1 SAVING           STO-SS ON UNIT   1026 AT TIME STEP      9, STRESS PERIOD      2
 UBDSV1 SAVING           STO-SY ON UNIT   1026 AT TIME STEP      9, STRESS PERIOD      2
 UBDSV1 SAVING     FLOW-JA-FACE ON UNIT   1026 AT TIME STEP      9, STRESS PERIOD      2
 UBDSV06 SAVING       DATA-SPDIS IN MODEL TRANSRIVER       PACKAGE NPF             CONNECTED TO MODEL TRANSRIVER       PACKAGE NPF              ON UNIT   1026 AT TIME STEP      9, STRESS PERIOD      2
 UBDSV06 SAVING              WEL IN MODEL TRANSRIVER       PACKAGE TRANSRIVER      CONNECTED TO MODEL TRANSRIVER       PACKAGE WEL-1            ON UNIT   1026 AT TIME STEP      9, STRESS PERIOD      2
 UBDSV06 SAVING              RIV IN MODEL TRANSRIVER       PACKAGE TRANSRIVER      CONNECTED TO MODEL TRANSRIVER       PACKAGE RIV-1            ON UNIT   1026 AT TIME STEP      9, STRESS PERIOD      2
 UBDSV06 SAVING              CHD IN MODEL TRANSRIVER       PACKAGE TRANSRIVER      CONNECTED TO MODEL TRANSRIVER       PACKAGE CHD-1            ON UNIT   1026 AT TIME STEP      9, STRESS PERIOD      2

 HEAD WILL BE SAVED ON UNIT 1027 AT END OF TIME STEP    9, STRESS PERIOD    2

end timestep


start timestep kper="2" kstp="10" mode="normal"

 UBDSV1 SAVING           STO-SS ON UNIT   1026 AT TIME STEP     10, STRESS PERIOD      2
 UBDSV1 SAVING           STO-SY ON UNIT   1026 AT TIME STEP     10, STRESS PERIOD      2
 UBDSV1 SAVING     FLOW-JA-FACE ON UNIT   1026 AT TIME STEP     10, STRESS PERIOD      2
 UBDSV06 SAVING       DATA-SPDIS IN MODEL TRANSRIVER       PACKAGE NPF             CONNECTED TO MODEL TRANSRIVER       PACKAGE NPF              ON UNIT   1026 AT TIME STEP     10, STRESS PERIOD      2
 UBDSV06 SAVING              WEL IN MODEL TRANSRIVER       PACKAGE TRANSRIVER      CONNECTED TO MODEL TRANSRIVER       PACKAGE WEL-1            ON UNIT   1026 AT TIME STEP     10, STRESS PERIOD      2
 UBDSV06 SAVING              RIV IN MODEL TRANSRIVER       PACKAGE TRANSRIVER      CONNECTED TO MODEL TRANSRIVER       PACKAGE RIV-1            ON UNIT   1026 AT TIME STEP     10, STRESS PERIOD      2
 UBDSV06 SAVING              CHD IN MODEL TRANSRIVER       PACKAGE TRANSRIVER      CONNECTED TO MODEL TRANSRIVER       PACKAGE CHD-1            ON UNIT   1026 AT TIME STEP     10, STRESS PERIOD      2

 HEAD WILL BE SAVED ON UNIT 1027 AT END OF TIME STEP   10, STRESS PERIOD    2

end timestep


start timestep kper="2" kstp="11" mode="normal"

 UBDSV1 SAVING           STO-SS ON UNIT   1026 AT TIME STEP     11, STRESS PERIOD      2
 UBDSV1 SAVING           STO-SY ON UNIT   1026 AT TIME STEP     11, STRESS PERIOD      2
 UBDSV1 SAVING     FLOW-JA-FACE ON UNIT   1026 AT TIME STEP     11, STRESS PERIOD      2
 UBDSV06 SAVING       DATA-SPDIS IN MODEL TRANSRIVER       PACKAGE NPF             CONNECTED TO MODEL TRANSRIVER       PACKAGE NPF              ON UNIT   1026 AT TIME STEP     11, STRESS PERIOD      2
 UBDSV06 SAVING              WEL IN MODEL TRANSRIVER       PACKAGE TRANSRIVER      CONNECTED TO MODEL TRANSRIVER       PACKAGE WEL-1            ON UNIT   1026 AT TIME STEP     11, STRESS PERIOD      2
 UBDSV06 SAVING              RIV IN MODEL TRANSRIVER       PACKAGE TRANSRIVER      CONNECTED TO MODEL TRANSRIVER       PACKAGE RIV-1            ON UNIT   1026 AT TIME STEP     11, STRESS PERIOD      2
 UBDSV06 SAVING              CHD IN MODEL TRANSRIVER       PACKAGE TRANSRIVER      CONNECTED TO MODEL TRANSRIVER       PACKAGE CHD-1            ON UNIT   1026 AT TIME STEP     11, STRESS PERIOD      2

 HEAD WILL BE SAVED ON UNIT 1027 AT END OF TIME STEP   11, STRESS PERIOD    2

end timestep


start timestep kper="2" kstp="12" mode="normal"

 UBDSV1 SAVING           STO-SS ON UNIT   1026 AT TIME STEP     12, STRESS PERIOD      2
 UBDSV1 SAVING           STO-SY ON UNIT   1026 AT TIME STEP     12, STRESS PERIOD      2
 UBDSV1 SAVING     FLOW-JA-FACE ON UNIT   1026 AT TIME STEP     12, STRESS PERIOD      2
 UBDSV06 SAVING       DATA-SPDIS IN MODEL TRANSRIVER       PACKAGE NPF             CONNECTED TO MODEL TRANSRIVER       PACKAGE NPF              ON UNIT   1026 AT TIME STEP     12, STRESS PERIOD      2
 UBDSV06 SAVING              WEL IN MODEL TRANSRIVER       PACKAGE TRANSRIVER      CONNECTED TO MODEL TRANSRIVER       PACKAGE WEL-1            ON UNIT   1026 AT TIME STEP     12, STRESS PERIOD      2
 UBDSV06 SAVING              RIV IN MODEL TRANSRIVER       PACKAGE TRANSRIVER      CONNECTED TO MODEL TRANSRIVER       PACKAGE RIV-1            ON UNIT   1026 AT TIME STEP     12, STRESS PERIOD      2
 UBDSV06 SAVING              CHD IN MODEL TRANSRIVER       PACKAGE TRANSRIVER      CONNECTED TO MODEL TRANSRIVER       PACKAGE CHD-1            ON UNIT   1026 AT TIME STEP     12, STRESS PERIOD      2

 HEAD WILL BE SAVED ON UNIT 1027 AT END OF TIME STEP   12, STRESS PERIOD    2

end timestep


start timestep kper="2" kstp="13" mode="normal"

 UBDSV1 SAVING           STO-SS ON UNIT   1026 AT TIME STEP     13, STRESS PERIOD      2
 UBDSV1 SAVING           STO-SY ON UNIT   1026 AT TIME STEP     13, STRESS PERIOD      2
 UBDSV1 SAVING     FLOW-JA-FACE ON UNIT   1026 AT TIME STEP     13, STRESS PERIOD      2
 UBDSV06 SAVING       DATA-SPDIS IN MODEL TRANSRIVER       PACKAGE NPF             CONNECTED TO MODEL TRANSRIVER       PACKAGE NPF              ON UNIT   1026 AT TIME STEP     13, STRESS PERIOD      2
 UBDSV06 SAVING              WEL IN MODEL TRANSRIVER       PACKAGE TRANSRIVER      CONNECTED TO MODEL TRANSRIVER       PACKAGE WEL-1            ON UNIT   1026 AT TIME STEP     13, STRESS PERIOD      2
 UBDSV06 SAVING              RIV IN MODEL TRANSRIVER       PACKAGE TRANSRIVER      CONNECTED TO MODEL TRANSRIVER       PACKAGE RIV-1            ON UNIT   1026 AT TIME STEP     13, STRESS PERIOD      2
 UBDSV06 SAVING              CHD IN MODEL TRANSRIVER       PACKAGE TRANSRIVER      CONNECTED TO MODEL TRANSRIVER       PACKAGE CHD-1            ON UNIT   1026 AT TIME STEP     13, STRESS PERIOD      2

 HEAD WILL BE SAVED ON UNIT 1027 AT END OF TIME STEP   13, STRESS PERIOD    2

end timestep


start timestep kper="2" kstp="14" mode="normal"

 UBDSV1 SAVING           STO-SS ON UNIT   1026 AT TIME STEP     14, STRESS PERIOD      2
 UBDSV1 SAVING           STO-SY ON UNIT   1026 AT TIME STEP     14, STRESS PERIOD      2
 UBDSV1 SAVING     FLOW-JA-FACE ON UNIT   1026 AT TIME STEP     14, STRESS PERIOD      2
 UBDSV06 SAVING       DATA-SPDIS IN MODEL TRANSRIVER       PACKAGE NPF             CONNECTED TO MODEL TRANSRIVER       PACKAGE NPF              ON UNIT   1026 AT TIME STEP     14, STRESS PERIOD      2
 UBDSV06 SAVING              WEL IN MODEL TRANSRIVER       PACKAGE TRANSRIVER      CONNECTED TO MODEL TRANSRIVER       PACKAGE WEL-1            ON UNIT   1026 AT TIME STEP     14, STRESS PERIOD      2
 UBDSV06 SAVING              RIV IN MODEL TRANSRIVER       PACKAGE TRANSRIVER      CONNECTED TO MODEL TRANSRIVER       PACKAGE RIV-1            ON UNIT   1026 AT TIME STEP     14, STRESS PERIOD      2
 UBDSV06 SAVING              CHD IN MODEL TRANSRIVER       PACKAGE TRANSRIVER      CONNECTED TO MODEL TRANSRIVER       PACKAGE CHD-1            ON UNIT   1026 AT TIME STEP     14, STRESS PERIOD      2

 HEAD WILL BE SAVED ON UNIT 1027 AT END OF TIME STEP   14, STRESS PERIOD    2

end timestep


start timestep kper="2" kstp="15" mode="normal"

 UBDSV1 SAVING           STO-SS ON UNIT   1026 AT TIME STEP     15, STRESS PERIOD      2
 UBDSV1 SAVING           STO-SY ON UNIT   1026 AT TIME STEP     15, STRESS PERIOD      2
 UBDSV1 SAVING     FLOW-JA-FACE ON UNIT   1026 AT TIME STEP     15, STRESS PERIOD      2
 UBDSV06 SAVING       DATA-SPDIS IN MODEL TRANSRIVER       PACKAGE NPF             CONNECTED TO MODEL TRANSRIVER       PACKAGE NPF              ON UNIT   1026 AT TIME STEP     15, STRESS PERIOD      2
 UBDSV06 SAVING              WEL IN MODEL TRANSRIVER       PACKAGE TRANSRIVER      CONNECTED TO MODEL TRANSRIVER       PACKAGE WEL-1            ON UNIT   1026 AT TIME STEP     15, STRESS PERIOD      2
 UBDSV06 SAVING              RIV IN MODEL TRANSRIVER       PACKAGE TRANSRIVER      CONNECTED TO MODEL TRANSRIVER       PACKAGE RIV-1            ON UNIT   1026 AT TIME STEP     15, STRESS PERIOD      2
 UBDSV06 SAVING              CHD IN MODEL TRANSRIVER       PACKAGE TRANSRIVER      CONNECTED TO MODEL TRANSRIVER       PACKAGE CHD-1            ON UNIT   1026 AT TIME STEP     15, STRESS PERIOD      2

 HEAD WILL BE SAVED ON UNIT 1027 AT END OF TIME STEP   15, STRESS PERIOD    2

end timestep


start timestep kper="2" kstp="16" mode="normal"

 UBDSV1 SAVING           STO-SS ON UNIT   1026 AT TIME STEP     16, STRESS PERIOD      2
 UBDSV1 SAVING           STO-SY ON UNIT   1026 AT TIME STEP     16, STRESS PERIOD      2
 UBDSV1 SAVING     FLOW-JA-FACE ON UNIT   1026 AT TIME STEP     16, STRESS PERIOD      2
 UBDSV06 SAVING       DATA-SPDIS IN MODEL TRANSRIVER       PACKAGE NPF             CONNECTED TO MODEL TRANSRIVER       PACKAGE NPF              ON UNIT   1026 AT TIME STEP     16, STRESS PERIOD      2
 UBDSV06 SAVING              WEL IN MODEL TRANSRIVER       PACKAGE TRANSRIVER      CONNECTED TO MODEL TRANSRIVER       PACKAGE WEL-1            ON UNIT   1026 AT TIME STEP     16, STRESS PERIOD      2
 UBDSV06 SAVING              RIV IN MODEL TRANSRIVER       PACKAGE TRANSRIVER      CONNECTED TO MODEL TRANSRIVER       PACKAGE RIV-1            ON UNIT   1026 AT TIME STEP     16, STRESS PERIOD      2
 UBDSV06 SAVING              CHD IN MODEL TRANSRIVER       PACKAGE TRANSRIVER      CONNECTED TO MODEL TRANSRIVER       PACKAGE CHD-1            ON UNIT   1026 AT TIME STEP     16, STRESS PERIOD      2

 HEAD WILL BE SAVED ON UNIT 1027 AT END OF TIME STEP   16, STRESS PERIOD    2

end timestep


start timestep kper="2" kstp="17" mode="normal"

 UBDSV1 SAVING           STO-SS ON UNIT   1026 AT TIME STEP     17, STRESS PERIOD      2
 UBDSV1 SAVING           STO-SY ON UNIT   1026 AT TIME STEP     17, STRESS PERIOD      2
 UBDSV1 SAVING     FLOW-JA-FACE ON UNIT   1026 AT TIME STEP     17, STRESS PERIOD      2
 UBDSV06 SAVING       DATA-SPDIS IN MODEL TRANSRIVER       PACKAGE NPF             CONNECTED TO MODEL TRANSRIVER       PACKAGE NPF              ON UNIT   1026 AT TIME STEP     17, STRESS PERIOD      2
 UBDSV06 SAVING              WEL IN MODEL TRANSRIVER       PACKAGE TRANSRIVER      CONNECTED TO MODEL TRANSRIVER       PACKAGE WEL-1            ON UNIT   1026 AT TIME STEP     17, STRESS PERIOD      2
 UBDSV06 SAVING              RIV IN MODEL TRANSRIVER       PACKAGE TRANSRIVER      CONNECTED TO MODEL TRANSRIVER       PACKAGE RIV-1            ON UNIT   1026 AT TIME STEP     17, STRESS PERIOD      2
 UBDSV06 SAVING              CHD IN MODEL TRANSRIVER       PACKAGE TRANSRIVER      CONNECTED TO MODEL TRANSRIVER       PACKAGE CHD-1            ON UNIT   1026 AT TIME STEP     17, STRESS PERIOD      2

 HEAD WILL BE SAVED ON UNIT 1027 AT END OF TIME STEP   17, STRESS PERIOD    2

end timestep


start timestep kper="2" kstp="18" mode="normal"

 UBDSV1 SAVING           STO-SS ON UNIT   1026 AT TIME STEP     18, STRESS PERIOD      2
 UBDSV1 SAVING           STO-SY ON UNIT   1026 AT TIME STEP     18, STRESS PERIOD      2
 UBDSV1 SAVING     FLOW-JA-FACE ON UNIT   1026 AT TIME STEP     18, STRESS PERIOD      2
 UBDSV06 SAVING       DATA-SPDIS IN MODEL TRANSRIVER       PACKAGE NPF             CONNECTED TO MODEL TRANSRIVER       PACKAGE NPF              ON UNIT   1026 AT TIME STEP     18, STRESS PERIOD      2
 UBDSV06 SAVING              WEL IN MODEL TRANSRIVER       PACKAGE TRANSRIVER      CONNECTED TO MODEL TRANSRIVER       PACKAGE WEL-1            ON UNIT   1026 AT TIME STEP     18, STRESS PERIOD      2
 UBDSV06 SAVING              RIV IN MODEL TRANSRIVER       PACKAGE TRANSRIVER      CONNECTED TO MODEL TRANSRIVER       PACKAGE RIV-1            ON UNIT   1026 AT TIME STEP     18, STRESS PERIOD      2
 UBDSV06 SAVING              CHD IN MODEL TRANSRIVER       PACKAGE TRANSRIVER      CONNECTED TO MODEL TRANSRIVER       PACKAGE CHD-1            ON UNIT   1026 AT TIME STEP     18, STRESS PERIOD      2

 HEAD WILL BE SAVED ON UNIT 1027 AT END OF TIME STEP   18, STRESS PERIOD    2

end timestep


start timestep kper="2" kstp="19" mode="normal"

 UBDSV1 SAVING           STO-SS ON UNIT   1026 AT TIME STEP     19, STRESS PERIOD      2
 UBDSV1 SAVING           STO-SY ON UNIT   1026 AT TIME STEP     19, STRESS PERIOD      2
 UBDSV1 SAVING     FLOW-JA-FACE ON UNIT   1026 AT TIME STEP     19, STRESS PERIOD      2
 UBDSV06 SAVING       DATA-SPDIS IN MODEL TRANSRIVER       PACKAGE NPF             CONNECTED TO MODEL TRANSRIVER       PACKAGE NPF              ON UNIT   1026 AT TIME STEP     19, STRESS PERIOD      2
 UBDSV06 SAVING              WEL IN MODEL TRANSRIVER       PACKAGE TRANSRIVER      CONNECTED TO MODEL TRANSRIVER       PACKAGE WEL-1            ON UNIT   1026 AT TIME STEP     19, STRESS PERIOD      2
 UBDSV06 SAVING              RIV IN MODEL TRANSRIVER       PACKAGE TRANSRIVER      CONNECTED TO MODEL TRANSRIVER       PACKAGE RIV-1            ON UNIT   1026 AT TIME STEP     19, STRESS PERIOD      2
 UBDSV06 SAVING              CHD IN MODEL TRANSRIVER       PACKAGE TRANSRIVER      CONNECTED TO MODEL TRANSRIVER       PACKAGE CHD-1            ON UNIT   1026 AT TIME STEP     19, STRESS PERIOD      2

 HEAD WILL BE SAVED ON UNIT 1027 AT END OF TIME STEP   19, STRESS PERIOD    2

end timestep


start timestep kper="2" kstp="20" mode="normal"

 UBDSV1 SAVING           STO-SS ON UNIT   1026 AT TIME STEP     20, STRESS PERIOD      2
 UBDSV1 SAVING           STO-SY ON UNIT   1026 AT TIME STEP     20, STRESS PERIOD      2
 UBDSV1 SAVING     FLOW-JA-FACE ON UNIT   1026 AT TIME STEP     20, STRESS PERIOD      2
 UBDSV06 SAVING       DATA-SPDIS IN MODEL TRANSRIVER       PACKAGE NPF             CONNECTED TO MODEL TRANSRIVER       PACKAGE NPF              ON UNIT   1026 AT TIME STEP     20, STRESS PERIOD      2
 UBDSV06 SAVING              WEL IN MODEL TRANSRIVER       PACKAGE TRANSRIVER      CONNECTED TO MODEL TRANSRIVER       PACKAGE WEL-1            ON UNIT   1026 AT TIME STEP     20, STRESS PERIOD      2
 UBDSV06 SAVING              RIV IN MODEL TRANSRIVER       PACKAGE TRANSRIVER      CONNECTED TO MODEL TRANSRIVER       PACKAGE RIV-1            ON UNIT   1026 AT TIME STEP     20, STRESS PERIOD      2
 UBDSV06 SAVING              CHD IN MODEL TRANSRIVER       PACKAGE TRANSRIVER      CONNECTED TO MODEL TRANSRIVER       PACKAGE CHD-1            ON UNIT   1026 AT TIME STEP     20, STRESS PERIOD      2

 HEAD WILL BE SAVED ON UNIT 1027 AT END OF TIME STEP   20, STRESS PERIOD    2

end timestep


start timestep kper="2" kstp="21" mode="normal"

 UBDSV1 SAVING           STO-SS ON UNIT   1026 AT TIME STEP     21, STRESS PERIOD      2
 UBDSV1 SAVING           STO-SY ON UNIT   1026 AT TIME STEP     21, STRESS PERIOD      2
 UBDSV1 SAVING     FLOW-JA-FACE ON UNIT   1026 AT TIME STEP     21, STRESS PERIOD      2
 UBDSV06 SAVING       DATA-SPDIS IN MODEL TRANSRIVER       PACKAGE NPF             CONNECTED TO MODEL TRANSRIVER       PACKAGE NPF              ON UNIT   1026 AT TIME STEP     21, STRESS PERIOD      2
 UBDSV06 SAVING              WEL IN MODEL TRANSRIVER       PACKAGE TRANSRIVER      CONNECTED TO MODEL TRANSRIVER       PACKAGE WEL-1            ON UNIT   1026 AT TIME STEP     21, STRESS PERIOD      2
 UBDSV06 SAVING              RIV IN MODEL TRANSRIVER       PACKAGE TRANSRIVER      CONNECTED TO MODEL TRANSRIVER       PACKAGE RIV-1            ON UNIT   1026 AT TIME STEP     21, STRESS PERIOD      2
 UBDSV06 SAVING              CHD IN MODEL TRANSRIVER       PACKAGE TRANSRIVER      CONNECTED TO MODEL TRANSRIVER       PACKAGE CHD-1            ON UNIT   1026 AT TIME STEP     21, STRESS PERIOD      2

 HEAD WILL BE SAVED ON UNIT 1027 AT END OF TIME STEP   21, STRESS PERIOD    2

end timestep


start timestep kper="2" kstp="22" mode="normal"

 UBDSV1 SAVING           STO-SS ON UNIT   1026 AT TIME STEP     22, STRESS PERIOD      2
 UBDSV1 SAVING           STO-SY ON UNIT   1026 AT TIME STEP     22, STRESS PERIOD      2
 UBDSV1 SAVING     FLOW-JA-FACE ON UNIT   1026 AT TIME STEP     22, STRESS PERIOD      2
 UBDSV06 SAVING       DATA-SPDIS IN MODEL TRANSRIVER       PACKAGE NPF             CONNECTED TO MODEL TRANSRIVER       PACKAGE NPF              ON UNIT   1026 AT TIME STEP     22, STRESS PERIOD      2
 UBDSV06 SAVING              WEL IN MODEL TRANSRIVER       PACKAGE TRANSRIVER      CONNECTED TO MODEL TRANSRIVER       PACKAGE WEL-1            ON UNIT   1026 AT TIME STEP     22, STRESS PERIOD      2
 UBDSV06 SAVING              RIV IN MODEL TRANSRIVER       PACKAGE TRANSRIVER      CONNECTED TO MODEL TRANSRIVER       PACKAGE RIV-1            ON UNIT   1026 AT TIME STEP     22, STRESS PERIOD      2
 UBDSV06 SAVING              CHD IN MODEL TRANSRIVER       PACKAGE TRANSRIVER      CONNECTED TO MODEL TRANSRIVER       PACKAGE CHD-1            ON UNIT   1026 AT TIME STEP     22, STRESS PERIOD      2

 HEAD WILL BE SAVED ON UNIT 1027 AT END OF TIME STEP   22, STRESS PERIOD    2

end timestep


start timestep kper="2" kstp="23" mode="normal"

 UBDSV1 SAVING           STO-SS ON UNIT   1026 AT TIME STEP     23, STRESS PERIOD      2
 UBDSV1 SAVING           STO-SY ON UNIT   1026 AT TIME STEP     23, STRESS PERIOD      2
 UBDSV1 SAVING     FLOW-JA-FACE ON UNIT   1026 AT TIME STEP     23, STRESS PERIOD      2
 UBDSV06 SAVING       DATA-SPDIS IN MODEL TRANSRIVER       PACKAGE NPF             CONNECTED TO MODEL TRANSRIVER       PACKAGE NPF              ON UNIT   1026 AT TIME STEP     23, STRESS PERIOD      2
 UBDSV06 SAVING              WEL IN MODEL TRANSRIVER       PACKAGE TRANSRIVER      CONNECTED TO MODEL TRANSRIVER       PACKAGE WEL-1            ON UNIT   1026 AT TIME STEP     23, STRESS PERIOD      2
 UBDSV06 SAVING              RIV IN MODEL TRANSRIVER       PACKAGE TRANSRIVER      CONNECTED TO MODEL TRANSRIVER       PACKAGE RIV-1            ON UNIT   1026 AT TIME STEP     23, STRESS PERIOD      2
 UBDSV06 SAVING              CHD IN MODEL TRANSRIVER       PACKAGE TRANSRIVER      CONNECTED TO MODEL TRANSRIVER       PACKAGE CHD-1            ON UNIT   1026 AT TIME STEP     23, STRESS PERIOD      2

 HEAD WILL BE SAVED ON UNIT 1027 AT END OF TIME STEP   23, STRESS PERIOD    2

end timestep


start timestep kper="2" kstp="24" mode="normal"

 UBDSV1 SAVING           STO-SS ON UNIT   1026 AT TIME STEP     24, STRESS PERIOD      2
 UBDSV1 SAVING           STO-SY ON UNIT   1026 AT TIME STEP     24, STRESS PERIOD      2
 UBDSV1 SAVING     FLOW-JA-FACE ON UNIT   1026 AT TIME STEP     24, STRESS PERIOD      2
 UBDSV06 SAVING       DATA-SPDIS IN MODEL TRANSRIVER       PACKAGE NPF             CONNECTED TO MODEL TRANSRIVER       PACKAGE NPF              ON UNIT   1026 AT TIME STEP     24, STRESS PERIOD      2
 UBDSV06 SAVING              WEL IN MODEL TRANSRIVER       PACKAGE TRANSRIVER      CONNECTED TO MODEL TRANSRIVER       PACKAGE WEL-1            ON UNIT   1026 AT TIME STEP     24, STRESS PERIOD      2
 UBDSV06 SAVING              RIV IN MODEL TRANSRIVER       PACKAGE TRANSRIVER      CONNECTED TO MODEL TRANSRIVER       PACKAGE RIV-1            ON UNIT   1026 AT TIME STEP     24, STRESS PERIOD      2
 UBDSV06 SAVING              CHD IN MODEL TRANSRIVER       PACKAGE TRANSRIVER      CONNECTED TO MODEL TRANSRIVER       PACKAGE CHD-1            ON UNIT   1026 AT TIME STEP     24, STRESS PERIOD      2

 HEAD WILL BE SAVED ON UNIT 1027 AT END OF TIME STEP   24, STRESS PERIOD    2

end timestep


start timestep kper="2" kstp="25" mode="normal"

 UBDSV1 SAVING           STO-SS ON UNIT   1026 AT TIME STEP     25, STRESS PERIOD      2
 UBDSV1 SAVING           STO-SY ON UNIT   1026 AT TIME STEP     25, STRESS PERIOD      2
 UBDSV1 SAVING     FLOW-JA-FACE ON UNIT   1026 AT TIME STEP     25, STRESS PERIOD      2
 UBDSV06 SAVING       DATA-SPDIS IN MODEL TRANSRIVER       PACKAGE NPF             CONNECTED TO MODEL TRANSRIVER       PACKAGE NPF              ON UNIT   1026 AT TIME STEP     25, STRESS PERIOD      2
 UBDSV06 SAVING              WEL IN MODEL TRANSRIVER       PACKAGE TRANSRIVER      CONNECTED TO MODEL TRANSRIVER       PACKAGE WEL-1            ON UNIT   1026 AT TIME STEP     25, STRESS PERIOD      2
 UBDSV06 SAVING              RIV IN MODEL TRANSRIVER       PACKAGE TRANSRIVER      CONNECTED TO MODEL TRANSRIVER       PACKAGE RIV-1            ON UNIT   1026 AT TIME STEP     25, STRESS PERIOD      2
 UBDSV06 SAVING              CHD IN MODEL TRANSRIVER       PACKAGE TRANSRIVER      CONNECTED TO MODEL TRANSRIVER       PACKAGE CHD-1            ON UNIT   1026 AT TIME STEP     25, STRESS PERIOD      2

 HEAD WILL BE SAVED ON UNIT 1027 AT END OF TIME STEP   25, STRESS PERIOD    2

end timestep


start timestep kper="2" kstp="26" mode="normal"

 UBDSV1 SAVING           STO-SS ON UNIT   1026 AT TIME STEP     26, STRESS PERIOD      2
 UBDSV1 SAVING           STO-SY ON UNIT   1026 AT TIME STEP     26, STRESS PERIOD      2
 UBDSV1 SAVING     FLOW-JA-FACE ON UNIT   1026 AT TIME STEP     26, STRESS PERIOD      2
 UBDSV06 SAVING       DATA-SPDIS IN MODEL TRANSRIVER       PACKAGE NPF             CONNECTED TO MODEL TRANSRIVER       PACKAGE NPF              ON UNIT   1026 AT TIME STEP     26, STRESS PERIOD      2
 UBDSV06 SAVING              WEL IN MODEL TRANSRIVER       PACKAGE TRANSRIVER      CONNECTED TO MODEL TRANSRIVER       PACKAGE WEL-1            ON UNIT   1026 AT TIME STEP     26, STRESS PERIOD      2
 UBDSV06 SAVING              RIV IN MODEL TRANSRIVER       PACKAGE TRANSRIVER      CONNECTED TO MODEL TRANSRIVER       PACKAGE RIV-1            ON UNIT   1026 AT TIME STEP     26, STRESS PERIOD      2
 UBDSV06 SAVING              CHD IN MODEL TRANSRIVER       PACKAGE TRANSRIVER      CONNECTED TO MODEL TRANSRIVER       PACKAGE CHD-1            ON UNIT   1026 AT TIME STEP     26, STRESS PERIOD      2

 HEAD WILL BE SAVED ON UNIT 1027 AT END OF TIME STEP   26, STRESS PERIOD    2

end timestep


start timestep kper="2" kstp="27" mode="normal"

 UBDSV1 SAVING           STO-SS ON UNIT   1026 AT TIME STEP     27, STRESS PERIOD      2
 UBDSV1 SAVING           STO-SY ON UNIT   1026 AT TIME STEP     27, STRESS PERIOD      2
 UBDSV1 SAVING     FLOW-JA-FACE ON UNIT   1026 AT TIME STEP     27, STRESS PERIOD      2
 UBDSV06 SAVING       DATA-SPDIS IN MODEL TRANSRIVER       PACKAGE NPF             CONNECTED TO MODEL TRANSRIVER       PACKAGE NPF              ON UNIT   1026 AT TIME STEP     27, STRESS PERIOD      2
 UBDSV06 SAVING              WEL IN MODEL TRANSRIVER       PACKAGE TRANSRIVER      CONNECTED TO MODEL TRANSRIVER       PACKAGE WEL-1            ON UNIT   1026 AT TIME STEP     27, STRESS PERIOD      2
 UBDSV06 SAVING              RIV IN MODEL TRANSRIVER       PACKAGE TRANSRIVER      CONNECTED TO MODEL TRANSRIVER       PACKAGE RIV-1            ON UNIT   1026 AT TIME STEP     27, STRESS PERIOD      2
 UBDSV06 SAVING              CHD IN MODEL TRANSRIVER       PACKAGE TRANSRIVER      CONNECTED TO MODEL TRANSRIVER       PACKAGE CHD-1            ON UNIT   1026 AT TIME STEP     27, STRESS PERIOD      2

 HEAD WILL BE SAVED ON UNIT 1027 AT END OF TIME STEP   27, STRESS PERIOD    2

end timestep


start timestep kper="2" kstp="28" mode="normal"

 UBDSV1 SAVING           STO-SS ON UNIT   1026 AT TIME STEP     28, STRESS PERIOD      2
 UBDSV1 SAVING           STO-SY ON UNIT   1026 AT TIME STEP     28, STRESS PERIOD      2
 UBDSV1 SAVING     FLOW-JA-FACE ON UNIT   1026 AT TIME STEP     28, STRESS PERIOD      2
 UBDSV06 SAVING       DATA-SPDIS IN MODEL TRANSRIVER       PACKAGE NPF             CONNECTED TO MODEL TRANSRIVER       PACKAGE NPF              ON UNIT   1026 AT TIME STEP     28, STRESS PERIOD      2
 UBDSV06 SAVING              WEL IN MODEL TRANSRIVER       PACKAGE TRANSRIVER      CONNECTED TO MODEL TRANSRIVER       PACKAGE WEL-1            ON UNIT   1026 AT TIME STEP     28, STRESS PERIOD      2
 UBDSV06 SAVING              RIV IN MODEL TRANSRIVER       PACKAGE TRANSRIVER      CONNECTED TO MODEL TRANSRIVER       PACKAGE RIV-1            ON UNIT   1026 AT TIME STEP     28, STRESS PERIOD      2
 UBDSV06 SAVING              CHD IN MODEL TRANSRIVER       PACKAGE TRANSRIVER      CONNECTED TO MODEL TRANSRIVER       PACKAGE CHD-1            ON UNIT   1026 AT TIME STEP     28, STRESS PERIOD      2

 HEAD WILL BE SAVED ON UNIT 1027 AT END OF TIME STEP   28, STRESS PERIOD    2

end timestep


start timestep kper="2" kstp="29" mode="normal"

 UBDSV1 SAVING           STO-SS ON UNIT   1026 AT TIME STEP     29, STRESS PERIOD      2
 UBDSV1 SAVING           STO-SY ON UNIT   1026 AT TIME STEP     29, STRESS PERIOD      2
 UBDSV1 SAVING     FLOW-JA-FACE ON UNIT   1026 AT TIME STEP     29, STRESS PERIOD      2
 UBDSV06 SAVING       DATA-SPDIS IN MODEL TRANSRIVER       PACKAGE NPF             CONNECTED TO MODEL TRANSRIVER       PACKAGE NPF              ON UNIT   1026 AT TIME STEP     29, STRESS PERIOD      2
 UBDSV06 SAVING              WEL IN MODEL TRANSRIVER       PACKAGE TRANSRIVER      CONNECTED TO MODEL TRANSRIVER       PACKAGE WEL-1            ON UNIT   1026 AT TIME STEP     29, STRESS PERIOD      2
 UBDSV06 SAVING              RIV IN MODEL TRANSRIVER       PACKAGE TRANSRIVER      CONNECTED TO MODEL TRANSRIVER       PACKAGE RIV-1            ON UNIT   1026 AT TIME STEP     29, STRESS PERIOD      2
 UBDSV06 SAVING              CHD IN MODEL TRANSRIVER       PACKAGE TRANSRIVER      CONNECTED TO MODEL TRANSRIVER       PACKAGE CHD-1            ON UNIT   1026 AT TIME STEP     29, STRESS PERIOD      2

 HEAD WILL BE SAVED ON UNIT 1027 AT END OF TIME STEP   29, STRESS PERIOD    2

end timestep


start timestep kper="2" kstp="30" mode="normal"

 UBDSV1 SAVING           STO-SS ON UNIT   1026 AT TIME STEP     30, STRESS PERIOD      2
 UBDSV1 SAVING           STO-SY ON UNIT   1026 AT TIME STEP     30, STRESS PERIOD      2
 UBDSV1 SAVING     FLOW-JA-FACE ON UNIT   1026 AT TIME STEP     30, STRESS PERIOD      2
 UBDSV06 SAVING       DATA-SPDIS IN MODEL TRANSRIVER       PACKAGE NPF             CONNECTED TO MODEL TRANSRIVER       PACKAGE NPF              ON UNIT   1026 AT TIME STEP     30, STRESS PERIOD      2
 UBDSV06 SAVING              WEL IN MODEL TRANSRIVER       PACKAGE TRANSRIVER      CONNECTED TO MODEL TRANSRIVER       PACKAGE WEL-1            ON UNIT   1026 AT TIME STEP     30, STRESS PERIOD      2
 UBDSV06 SAVING              RIV IN MODEL TRANSRIVER       PACKAGE TRANSRIVER      CONNECTED TO MODEL TRANSRIVER       PACKAGE RIV-1            ON UNIT   1026 AT TIME STEP     30, STRESS PERIOD      2
 UBDSV06 SAVING              CHD IN MODEL TRANSRIVER       PACKAGE TRANSRIVER      CONNECTED TO MODEL TRANSRIVER       PACKAGE CHD-1            ON UNIT   1026 AT TIME STEP     30, STRESS PERIOD      2

 HEAD WILL BE SAVED ON UNIT 1027 AT END OF TIME STEP   30, STRESS PERIOD    2

end timestep


start timestep kper="2" kstp="31" mode="normal"

 UBDSV1 SAVING           STO-SS ON UNIT   1026 AT TIME STEP     31, STRESS PERIOD      2
 UBDSV1 SAVING           STO-SY ON UNIT   1026 AT TIME STEP     31, STRESS PERIOD      2
 UBDSV1 SAVING     FLOW-JA-FACE ON UNIT   1026 AT TIME STEP     31, STRESS PERIOD      2
 UBDSV06 SAVING       DATA-SPDIS IN MODEL TRANSRIVER       PACKAGE NPF             CONNECTED TO MODEL TRANSRIVER       PACKAGE NPF              ON UNIT   1026 AT TIME STEP     31, STRESS PERIOD      2
 UBDSV06 SAVING              WEL IN MODEL TRANSRIVER       PACKAGE TRANSRIVER      CONNECTED TO MODEL TRANSRIVER       PACKAGE WEL-1            ON UNIT   1026 AT TIME STEP     31, STRESS PERIOD      2
 UBDSV06 SAVING              RIV IN MODEL TRANSRIVER       PACKAGE TRANSRIVER      CONNECTED TO MODEL TRANSRIVER       PACKAGE RIV-1            ON UNIT   1026 AT TIME STEP     31, STRESS PERIOD      2
 UBDSV06 SAVING              CHD IN MODEL TRANSRIVER       PACKAGE TRANSRIVER      CONNECTED TO MODEL TRANSRIVER       PACKAGE CHD-1            ON UNIT   1026 AT TIME STEP     31, STRESS PERIOD      2

 HEAD WILL BE SAVED ON UNIT 1027 AT END OF TIME STEP   31, STRESS PERIOD    2

end timestep


start timestep kper="2" kstp="32" mode="normal"

 UBDSV1 SAVING           STO-SS ON UNIT   1026 AT TIME STEP     32, STRESS PERIOD      2
 UBDSV1 SAVING           STO-SY ON UNIT   1026 AT TIME STEP     32, STRESS PERIOD      2
 UBDSV1 SAVING     FLOW-JA-FACE ON UNIT   1026 AT TIME STEP     32, STRESS PERIOD      2
 UBDSV06 SAVING       DATA-SPDIS IN MODEL TRANSRIVER       PACKAGE NPF             CONNECTED TO MODEL TRANSRIVER       PACKAGE NPF              ON UNIT   1026 AT TIME STEP     32, STRESS PERIOD      2
 UBDSV06 SAVING              WEL IN MODEL TRANSRIVER       PACKAGE TRANSRIVER      CONNECTED TO MODEL TRANSRIVER       PACKAGE WEL-1            ON UNIT   1026 AT TIME STEP     32, STRESS PERIOD      2
 UBDSV06 SAVING              RIV IN MODEL TRANSRIVER       PACKAGE TRANSRIVER      CONNECTED TO MODEL TRANSRIVER       PACKAGE RIV-1            ON UNIT   1026 AT TIME STEP     32, STRESS PERIOD      2
 UBDSV06 SAVING              CHD IN MODEL TRANSRIVER       PACKAGE TRANSRIVER      CONNECTED TO MODEL TRANSRIVER       PACKAGE CHD-1            ON UNIT   1026 AT TIME STEP     32, STRESS PERIOD      2

 HEAD WILL BE SAVED ON UNIT 1027 AT END OF TIME STEP   32, STRESS PERIOD    2

end timestep


start timestep kper="2" kstp="33" mode="normal"

 UBDSV1 SAVING           STO-SS ON UNIT   1026 AT TIME STEP     33, STRESS PERIOD      2
 UBDSV1 SAVING           STO-SY ON UNIT   1026 AT TIME STEP     33, STRESS PERIOD      2
 UBDSV1 SAVING     FLOW-JA-FACE ON UNIT   1026 AT TIME STEP     33, STRESS PERIOD      2
 UBDSV06 SAVING       DATA-SPDIS IN MODEL TRANSRIVER       PACKAGE NPF             CONNECTED TO MODEL TRANSRIVER       PACKAGE NPF              ON UNIT   1026 AT TIME STEP     33, STRESS PERIOD      2
 UBDSV06 SAVING              WEL IN MODEL TRANSRIVER       PACKAGE TRANSRIVER      CONNECTED TO MODEL TRANSRIVER       PACKAGE WEL-1            ON UNIT   1026 AT TIME STEP     33, STRESS PERIOD      2
 UBDSV06 SAVING              RIV IN MODEL TRANSRIVER       PACKAGE TRANSRIVER      CONNECTED TO MODEL TRANSRIVER       PACKAGE RIV-1            ON UNIT   1026 AT TIME STEP     33, STRESS PERIOD      2
 UBDSV06 SAVING              CHD IN MODEL TRANSRIVER       PACKAGE TRANSRIVER      CONNECTED TO MODEL TRANSRIVER       PACKAGE CHD-1            ON UNIT   1026 AT TIME STEP     33, STRESS PERIOD      2

 HEAD WILL BE SAVED ON UNIT 1027 AT END OF TIME STEP   33, STRESS PERIOD    2

end timestep


start timestep kper="2" kstp="34" mode="normal"

 UBDSV1 SAVING           STO-SS ON UNIT   1026 AT TIME STEP     34, STRESS PERIOD      2
 UBDSV1 SAVING           STO-SY ON UNIT   1026 AT TIME STEP     34, STRESS PERIOD      2
 UBDSV1 SAVING     FLOW-JA-FACE ON UNIT   1026 AT TIME STEP     34, STRESS PERIOD      2
 UBDSV06 SAVING       DATA-SPDIS IN MODEL TRANSRIVER       PACKAGE NPF             CONNECTED TO MODEL TRANSRIVER       PACKAGE NPF              ON UNIT   1026 AT TIME STEP     34, STRESS PERIOD      2
 UBDSV06 SAVING              WEL IN MODEL TRANSRIVER       PACKAGE TRANSRIVER      CONNECTED TO MODEL TRANSRIVER       PACKAGE WEL-1            ON UNIT   1026 AT TIME STEP     34, STRESS PERIOD      2
 UBDSV06 SAVING              RIV IN MODEL TRANSRIVER       PACKAGE TRANSRIVER      CONNECTED TO MODEL TRANSRIVER       PACKAGE RIV-1            ON UNIT   1026 AT TIME STEP     34, STRESS PERIOD      2
 UBDSV06 SAVING              CHD IN MODEL TRANSRIVER       PACKAGE TRANSRIVER      CONNECTED TO MODEL TRANSRIVER       PACKAGE CHD-1            ON UNIT   1026 AT TIME STEP     34, STRESS PERIOD      2

 HEAD WILL BE SAVED ON UNIT 1027 AT END OF TIME STEP   34, STRESS PERIOD    2

end timestep


start timestep kper="2" kstp="35" mode="normal"

 UBDSV1 SAVING           STO-SS ON UNIT   1026 AT TIME STEP     35, STRESS PERIOD      2
 UBDSV1 SAVING           STO-SY ON UNIT   1026 AT TIME STEP     35, STRESS PERIOD      2
 UBDSV1 SAVING     FLOW-JA-FACE ON UNIT   1026 AT TIME STEP     35, STRESS PERIOD      2
 UBDSV06 SAVING       DATA-SPDIS IN MODEL TRANSRIVER       PACKAGE NPF             CONNECTED TO MODEL TRANSRIVER       PACKAGE NPF              ON UNIT   1026 AT TIME STEP     35, STRESS PERIOD      2
 UBDSV06 SAVING              WEL IN MODEL TRANSRIVER       PACKAGE TRANSRIVER      CONNECTED TO MODEL TRANSRIVER       PACKAGE WEL-1            ON UNIT   1026 AT TIME STEP     35, STRESS PERIOD      2
 UBDSV06 SAVING              RIV IN MODEL TRANSRIVER       PACKAGE TRANSRIVER      CONNECTED TO MODEL TRANSRIVER       PACKAGE RIV-1            ON UNIT   1026 AT TIME STEP     35, STRESS PERIOD      2
 UBDSV06 SAVING              CHD IN MODEL TRANSRIVER       PACKAGE TRANSRIVER      CONNECTED TO MODEL TRANSRIVER       PACKAGE CHD-1            ON UNIT   1026 AT TIME STEP     35, STRESS PERIOD      2

 HEAD WILL BE SAVED ON UNIT 1027 AT END OF TIME STEP   35, STRESS PERIOD    2

end timestep


start timestep kper="2" kstp="36" mode="normal"

 UBDSV1 SAVING           STO-SS ON UNIT   1026 AT TIME STEP     36, STRESS PERIOD      2
 UBDSV1 SAVING           STO-SY ON UNIT   1026 AT TIME STEP     36, STRESS PERIOD      2
 UBDSV1 SAVING     FLOW-JA-FACE ON UNIT   1026 AT TIME STEP     36, STRESS PERIOD      2
 UBDSV06 SAVING       DATA-SPDIS IN MODEL TRANSRIVER       PACKAGE NPF             CONNECTED TO MODEL TRANSRIVER       PACKAGE NPF              ON UNIT   1026 AT TIME STEP     36, STRESS PERIOD      2
 UBDSV06 SAVING              WEL IN MODEL TRANSRIVER       PACKAGE TRANSRIVER      CONNECTED TO MODEL TRANSRIVER       PACKAGE WEL-1            ON UNIT   1026 AT TIME STEP     36, STRESS PERIOD      2
 UBDSV06 SAVING              RIV IN MODEL TRANSRIVER       PACKAGE TRANSRIVER      CONNECTED TO MODEL TRANSRIVER       PACKAGE RIV-1            ON UNIT   1026 AT TIME STEP     36, STRESS PERIOD      2
 UBDSV06 SAVING              CHD IN MODEL TRANSRIVER       PACKAGE TRANSRIVER      CONNECTED TO MODEL TRANSRIVER       PACKAGE CHD-1            ON UNIT   1026 AT TIME STEP     36, STRESS PERIOD      2

 HEAD WILL BE SAVED ON UNIT 1027 AT END OF TIME STEP   36, STRESS PERIOD    2

end timestep


start timestep kper="2" kstp="37" mode="normal"

 UBDSV1 SAVING           STO-SS ON UNIT   1026 AT TIME STEP     37, STRESS PERIOD      2
 UBDSV1 SAVING           STO-SY ON UNIT   1026 AT TIME STEP     37, STRESS PERIOD      2
 UBDSV1 SAVING     FLOW-JA-FACE ON UNIT   1026 AT TIME STEP     37, STRESS PERIOD      2
 UBDSV06 SAVING       DATA-SPDIS IN MODEL TRANSRIVER       PACKAGE NPF             CONNECTED TO MODEL TRANSRIVER       PACKAGE NPF              ON UNIT   1026 AT TIME STEP     37, STRESS PERIOD      2
 UBDSV06 SAVING              WEL IN MODEL TRANSRIVER       PACKAGE TRANSRIVER      CONNECTED TO MODEL TRANSRIVER       PACKAGE WEL-1            ON UNIT   1026 AT TIME STEP     37, STRESS PERIOD      2
 UBDSV06 SAVING              RIV IN MODEL TRANSRIVER       PACKAGE TRANSRIVER      CONNECTED TO MODEL TRANSRIVER       PACKAGE RIV-1            ON UNIT   1026 AT TIME STEP     37, STRESS PERIOD      2
 UBDSV06 SAVING              CHD IN MODEL TRANSRIVER       PACKAGE TRANSRIVER      CONNECTED TO MODEL TRANSRIVER       PACKAGE CHD-1            ON UNIT   1026 AT TIME STEP     37, STRESS PERIOD      2

 HEAD WILL BE SAVED ON UNIT 1027 AT END OF TIME STEP   37, STRESS PERIOD    2

[...]
 UBDSV06 SAVING              CHD IN MODEL TRANSRIVER       PACKAGE TRANSRIVER      CONNECTED TO MODEL TRANSRIVER       PACKAGE CHD-1            ON UNIT   1026 AT TIME STEP    106, STRESS PERIOD      4

 HEAD WILL BE SAVED ON UNIT 1027 AT END OF TIME STEP  106, STRESS PERIOD    4

end timestep


start timestep kper="4" kstp="107" mode="normal"

 UBDSV1 SAVING           STO-SS ON UNIT   1026 AT TIME STEP    107, STRESS PERIOD      4
 UBDSV1 SAVING           STO-SY ON UNIT   1026 AT TIME STEP    107, STRESS PERIOD      4
 UBDSV1 SAVING     FLOW-JA-FACE ON UNIT   1026 AT TIME STEP    107, STRESS PERIOD      4
 UBDSV06 SAVING       DATA-SPDIS IN MODEL TRANSRIVER       PACKAGE NPF             CONNECTED TO MODEL TRANSRIVER       PACKAGE NPF              ON UNIT   1026 AT TIME STEP    107, STRESS PERIOD      4
 UBDSV06 SAVING              WEL IN MODEL TRANSRIVER       PACKAGE TRANSRIVER      CONNECTED TO MODEL TRANSRIVER       PACKAGE WEL-1            ON UNIT   1026 AT TIME STEP    107, STRESS PERIOD      4
 UBDSV06 SAVING              RIV IN MODEL TRANSRIVER       PACKAGE TRANSRIVER      CONNECTED TO MODEL TRANSRIVER       PACKAGE RIV-1            ON UNIT   1026 AT TIME STEP    107, STRESS PERIOD      4
 UBDSV06 SAVING              CHD IN MODEL TRANSRIVER       PACKAGE TRANSRIVER      CONNECTED TO MODEL TRANSRIVER       PACKAGE CHD-1            ON UNIT   1026 AT TIME STEP    107, STRESS PERIOD      4

 HEAD WILL BE SAVED ON UNIT 1027 AT END OF TIME STEP  107, STRESS PERIOD    4

end timestep


start timestep kper="4" kstp="108" mode="normal"

 UBDSV1 SAVING           STO-SS ON UNIT   1026 AT TIME STEP    108, STRESS PERIOD      4
 UBDSV1 SAVING           STO-SY ON UNIT   1026 AT TIME STEP    108, STRESS PERIOD      4
 UBDSV1 SAVING     FLOW-JA-FACE ON UNIT   1026 AT TIME STEP    108, STRESS PERIOD      4
 UBDSV06 SAVING       DATA-SPDIS IN MODEL TRANSRIVER       PACKAGE NPF             CONNECTED TO MODEL TRANSRIVER       PACKAGE NPF              ON UNIT   1026 AT TIME STEP    108, STRESS PERIOD      4
 UBDSV06 SAVING              WEL IN MODEL TRANSRIVER       PACKAGE TRANSRIVER      CONNECTED TO MODEL TRANSRIVER       PACKAGE WEL-1            ON UNIT   1026 AT TIME STEP    108, STRESS PERIOD      4
 UBDSV06 SAVING              RIV IN MODEL TRANSRIVER       PACKAGE TRANSRIVER      CONNECTED TO MODEL TRANSRIVER       PACKAGE RIV-1            ON UNIT   1026 AT TIME STEP    108, STRESS PERIOD      4
 UBDSV06 SAVING              CHD IN MODEL TRANSRIVER       PACKAGE TRANSRIVER      CONNECTED TO MODEL TRANSRIVER       PACKAGE CHD-1            ON UNIT   1026 AT TIME STEP    108, STRESS PERIOD      4

 HEAD WILL BE SAVED ON UNIT 1027 AT END OF TIME STEP  108, STRESS PERIOD    4

end timestep


start timestep kper="4" kstp="109" mode="normal"

 UBDSV1 SAVING           STO-SS ON UNIT   1026 AT TIME STEP    109, STRESS PERIOD      4
 UBDSV1 SAVING           STO-SY ON UNIT   1026 AT TIME STEP    109, STRESS PERIOD      4
 UBDSV1 SAVING     FLOW-JA-FACE ON UNIT   1026 AT TIME STEP    109, STRESS PERIOD      4
 UBDSV06 SAVING       DATA-SPDIS IN MODEL TRANSRIVER       PACKAGE NPF             CONNECTED TO MODEL TRANSRIVER       PACKAGE NPF              ON UNIT   1026 AT TIME STEP    109, STRESS PERIOD      4
 UBDSV06 SAVING              WEL IN MODEL TRANSRIVER       PACKAGE TRANSRIVER      CONNECTED TO MODEL TRANSRIVER       PACKAGE WEL-1            ON UNIT   1026 AT TIME STEP    109, STRESS PERIOD      4
 UBDSV06 SAVING              RIV IN MODEL TRANSRIVER       PACKAGE TRANSRIVER      CONNECTED TO MODEL TRANSRIVER       PACKAGE RIV-1            ON UNIT   1026 AT TIME STEP    109, STRESS PERIOD      4
 UBDSV06 SAVING              CHD IN MODEL TRANSRIVER       PACKAGE TRANSRIVER      CONNECTED TO MODEL TRANSRIVER       PACKAGE CHD-1            ON UNIT   1026 AT TIME STEP    109, STRESS PERIOD      4

 HEAD WILL BE SAVED ON UNIT 1027 AT END OF TIME STEP  109, STRESS PERIOD    4

end timestep


start timestep kper="4" kstp="110" mode="normal"

 UBDSV1 SAVING           STO-SS ON UNIT   1026 AT TIME STEP    110, STRESS PERIOD      4
 UBDSV1 SAVING           STO-SY ON UNIT   1026 AT TIME STEP    110, STRESS PERIOD      4
 UBDSV1 SAVING     FLOW-JA-FACE ON UNIT   1026 AT TIME STEP    110, STRESS PERIOD      4
 UBDSV06 SAVING       DATA-SPDIS IN MODEL TRANSRIVER       PACKAGE NPF             CONNECTED TO MODEL TRANSRIVER       PACKAGE NPF              ON UNIT   1026 AT TIME STEP    110, STRESS PERIOD      4
 UBDSV06 SAVING              WEL IN MODEL TRANSRIVER       PACKAGE TRANSRIVER      CONNECTED TO MODEL TRANSRIVER       PACKAGE WEL-1            ON UNIT   1026 AT TIME STEP    110, STRESS PERIOD      4
 UBDSV06 SAVING              RIV IN MODEL TRANSRIVER       PACKAGE TRANSRIVER      CONNECTED TO MODEL TRANSRIVER       PACKAGE RIV-1            ON UNIT   1026 AT TIME STEP    110, STRESS PERIOD      4
 UBDSV06 SAVING              CHD IN MODEL TRANSRIVER       PACKAGE TRANSRIVER      CONNECTED TO MODEL TRANSRIVER       PACKAGE CHD-1            ON UNIT   1026 AT TIME STEP    110, STRESS PERIOD      4

 HEAD WILL BE SAVED ON UNIT 1027 AT END OF TIME STEP  110, STRESS PERIOD    4

end timestep


start timestep kper="4" kstp="111" mode="normal"

 UBDSV1 SAVING           STO-SS ON UNIT   1026 AT TIME STEP    111, STRESS PERIOD      4
 UBDSV1 SAVING           STO-SY ON UNIT   1026 AT TIME STEP    111, STRESS PERIOD      4
 UBDSV1 SAVING     FLOW-JA-FACE ON UNIT   1026 AT TIME STEP    111, STRESS PERIOD      4
 UBDSV06 SAVING       DATA-SPDIS IN MODEL TRANSRIVER       PACKAGE NPF             CONNECTED TO MODEL TRANSRIVER       PACKAGE NPF              ON UNIT   1026 AT TIME STEP    111, STRESS PERIOD      4
 UBDSV06 SAVING              WEL IN MODEL TRANSRIVER       PACKAGE TRANSRIVER      CONNECTED TO MODEL TRANSRIVER       PACKAGE WEL-1            ON UNIT   1026 AT TIME STEP    111, STRESS PERIOD      4
 UBDSV06 SAVING              RIV IN MODEL TRANSRIVER       PACKAGE TRANSRIVER      CONNECTED TO MODEL TRANSRIVER       PACKAGE RIV-1            ON UNIT   1026 AT TIME STEP    111, STRESS PERIOD      4
 UBDSV06 SAVING              CHD IN MODEL TRANSRIVER       PACKAGE TRANSRIVER      CONNECTED TO MODEL TRANSRIVER       PACKAGE CHD-1            ON UNIT   1026 AT TIME STEP    111, STRESS PERIOD      4

 HEAD WILL BE SAVED ON UNIT 1027 AT END OF TIME STEP  111, STRESS PERIOD    4

end timestep


start timestep kper="4" kstp="112" mode="normal"

 UBDSV1 SAVING           STO-SS ON UNIT   1026 AT TIME STEP    112, STRESS PERIOD      4
 UBDSV1 SAVING           STO-SY ON UNIT   1026 AT TIME STEP    112, STRESS PERIOD      4
 UBDSV1 SAVING     FLOW-JA-FACE ON UNIT   1026 AT TIME STEP    112, STRESS PERIOD      4
 UBDSV06 SAVING       DATA-SPDIS IN MODEL TRANSRIVER       PACKAGE NPF             CONNECTED TO MODEL TRANSRIVER       PACKAGE NPF              ON UNIT   1026 AT TIME STEP    112, STRESS PERIOD      4
 UBDSV06 SAVING              WEL IN MODEL TRANSRIVER       PACKAGE TRANSRIVER      CONNECTED TO MODEL TRANSRIVER       PACKAGE WEL-1            ON UNIT   1026 AT TIME STEP    112, STRESS PERIOD      4
 UBDSV06 SAVING              RIV IN MODEL TRANSRIVER       PACKAGE TRANSRIVER      CONNECTED TO MODEL TRANSRIVER       PACKAGE RIV-1            ON UNIT   1026 AT TIME STEP    112, STRESS PERIOD      4
 UBDSV06 SAVING              CHD IN MODEL TRANSRIVER       PACKAGE TRANSRIVER      CONNECTED TO MODEL TRANSRIVER       PACKAGE CHD-1            ON UNIT   1026 AT TIME STEP    112, STRESS PERIOD      4

 HEAD WILL BE SAVED ON UNIT 1027 AT END OF TIME STEP  112, STRESS PERIOD    4

end timestep


start timestep kper="4" kstp="113" mode="normal"

 UBDSV1 SAVING           STO-SS ON UNIT   1026 AT TIME STEP    113, STRESS PERIOD      4
 UBDSV1 SAVING           STO-SY ON UNIT   1026 AT TIME STEP    113, STRESS PERIOD      4
 UBDSV1 SAVING     FLOW-JA-FACE ON UNIT   1026 AT TIME STEP    113, STRESS PERIOD      4
 UBDSV06 SAVING       DATA-SPDIS IN MODEL TRANSRIVER       PACKAGE NPF             CONNECTED TO MODEL TRANSRIVER       PACKAGE NPF              ON UNIT   1026 AT TIME STEP    113, STRESS PERIOD      4
 UBDSV06 SAVING              WEL IN MODEL TRANSRIVER       PACKAGE TRANSRIVER      CONNECTED TO MODEL TRANSRIVER       PACKAGE WEL-1            ON UNIT   1026 AT TIME STEP    113, STRESS PERIOD      4
 UBDSV06 SAVING              RIV IN MODEL TRANSRIVER       PACKAGE TRANSRIVER      CONNECTED TO MODEL TRANSRIVER       PACKAGE RIV-1            ON UNIT   1026 AT TIME STEP    113, STRESS PERIOD      4
 UBDSV06 SAVING              CHD IN MODEL TRANSRIVER       PACKAGE TRANSRIVER      CONNECTED TO MODEL TRANSRIVER       PACKAGE CHD-1            ON UNIT   1026 AT TIME STEP    113, STRESS PERIOD      4

 HEAD WILL BE SAVED ON UNIT 1027 AT END OF TIME STEP  113, STRESS PERIOD    4

end timestep


start timestep kper="4" kstp="114" mode="normal"

 UBDSV1 SAVING           STO-SS ON UNIT   1026 AT TIME STEP    114, STRESS PERIOD      4
 UBDSV1 SAVING           STO-SY ON UNIT   1026 AT TIME STEP    114, STRESS PERIOD      4
 UBDSV1 SAVING     FLOW-JA-FACE ON UNIT   1026 AT TIME STEP    114, STRESS PERIOD      4
 UBDSV06 SAVING       DATA-SPDIS IN MODEL TRANSRIVER       PACKAGE NPF             CONNECTED TO MODEL TRANSRIVER       PACKAGE NPF              ON UNIT   1026 AT TIME STEP    114, STRESS PERIOD      4
 UBDSV06 SAVING              WEL IN MODEL TRANSRIVER       PACKAGE TRANSRIVER      CONNECTED TO MODEL TRANSRIVER       PACKAGE WEL-1            ON UNIT   1026 AT TIME STEP    114, STRESS PERIOD      4
 UBDSV06 SAVING              RIV IN MODEL TRANSRIVER       PACKAGE TRANSRIVER      CONNECTED TO MODEL TRANSRIVER       PACKAGE RIV-1            ON UNIT   1026 AT TIME STEP    114, STRESS PERIOD      4
 UBDSV06 SAVING              CHD IN MODEL TRANSRIVER       PACKAGE TRANSRIVER      CONNECTED TO MODEL TRANSRIVER       PACKAGE CHD-1            ON UNIT   1026 AT TIME STEP    114, STRESS PERIOD      4

 HEAD WILL BE SAVED ON UNIT 1027 AT END OF TIME STEP  114, STRESS PERIOD    4

end timestep


start timestep kper="4" kstp="115" mode="normal"

 UBDSV1 SAVING           STO-SS ON UNIT   1026 AT TIME STEP    115, STRESS PERIOD      4
 UBDSV1 SAVING           STO-SY ON UNIT   1026 AT TIME STEP    115, STRESS PERIOD      4
 UBDSV1 SAVING     FLOW-JA-FACE ON UNIT   1026 AT TIME STEP    115, STRESS PERIOD      4
 UBDSV06 SAVING       DATA-SPDIS IN MODEL TRANSRIVER       PACKAGE NPF             CONNECTED TO MODEL TRANSRIVER       PACKAGE NPF              ON UNIT   1026 AT TIME STEP    115, STRESS PERIOD      4
 UBDSV06 SAVING              WEL IN MODEL TRANSRIVER       PACKAGE TRANSRIVER      CONNECTED TO MODEL TRANSRIVER       PACKAGE WEL-1            ON UNIT   1026 AT TIME STEP    115, STRESS PERIOD      4
 UBDSV06 SAVING              RIV IN MODEL TRANSRIVER       PACKAGE TRANSRIVER      CONNECTED TO MODEL TRANSRIVER       PACKAGE RIV-1            ON UNIT   1026 AT TIME STEP    115, STRESS PERIOD      4
 UBDSV06 SAVING              CHD IN MODEL TRANSRIVER       PACKAGE TRANSRIVER      CONNECTED TO MODEL TRANSRIVER       PACKAGE CHD-1            ON UNIT   1026 AT TIME STEP    115, STRESS PERIOD      4

 HEAD WILL BE SAVED ON UNIT 1027 AT END OF TIME STEP  115, STRESS PERIOD    4

end timestep


start timestep kper="4" kstp="116" mode="normal"

 UBDSV1 SAVING           STO-SS ON UNIT   1026 AT TIME STEP    116, STRESS PERIOD      4
 UBDSV1 SAVING           STO-SY ON UNIT   1026 AT TIME STEP    116, STRESS PERIOD      4
 UBDSV1 SAVING     FLOW-JA-FACE ON UNIT   1026 AT TIME STEP    116, STRESS PERIOD      4
 UBDSV06 SAVING       DATA-SPDIS IN MODEL TRANSRIVER       PACKAGE NPF             CONNECTED TO MODEL TRANSRIVER       PACKAGE NPF              ON UNIT   1026 AT TIME STEP    116, STRESS PERIOD      4
 UBDSV06 SAVING              WEL IN MODEL TRANSRIVER       PACKAGE TRANSRIVER      CONNECTED TO MODEL TRANSRIVER       PACKAGE WEL-1            ON UNIT   1026 AT TIME STEP    116, STRESS PERIOD      4
 UBDSV06 SAVING              RIV IN MODEL TRANSRIVER       PACKAGE TRANSRIVER      CONNECTED TO MODEL TRANSRIVER       PACKAGE RIV-1            ON UNIT   1026 AT TIME STEP    116, STRESS PERIOD      4
 UBDSV06 SAVING              CHD IN MODEL TRANSRIVER       PACKAGE TRANSRIVER      CONNECTED TO MODEL TRANSRIVER       PACKAGE CHD-1            ON UNIT   1026 AT TIME STEP    116, STRESS PERIOD      4

 HEAD WILL BE SAVED ON UNIT 1027 AT END OF TIME STEP  116, STRESS PERIOD    4

end timestep


start timestep kper="4" kstp="117" mode="normal"

 UBDSV1 SAVING           STO-SS ON UNIT   1026 AT TIME STEP    117, STRESS PERIOD      4
 UBDSV1 SAVING           STO-SY ON UNIT   1026 AT TIME STEP    117, STRESS PERIOD      4
 UBDSV1 SAVING     FLOW-JA-FACE ON UNIT   1026 AT TIME STEP    117, STRESS PERIOD      4
 UBDSV06 SAVING       DATA-SPDIS IN MODEL TRANSRIVER       PACKAGE NPF             CONNECTED TO MODEL TRANSRIVER       PACKAGE NPF              ON UNIT   1026 AT TIME STEP    117, STRESS PERIOD      4
 UBDSV06 SAVING              WEL IN MODEL TRANSRIVER       PACKAGE TRANSRIVER      CONNECTED TO MODEL TRANSRIVER       PACKAGE WEL-1            ON UNIT   1026 AT TIME STEP    117, STRESS PERIOD      4
 UBDSV06 SAVING              RIV IN MODEL TRANSRIVER       PACKAGE TRANSRIVER      CONNECTED TO MODEL TRANSRIVER       PACKAGE RIV-1            ON UNIT   1026 AT TIME STEP    117, STRESS PERIOD      4
 UBDSV06 SAVING              CHD IN MODEL TRANSRIVER       PACKAGE TRANSRIVER      CONNECTED TO MODEL TRANSRIVER       PACKAGE CHD-1            ON UNIT   1026 AT TIME STEP    117, STRESS PERIOD      4

 HEAD WILL BE SAVED ON UNIT 1027 AT END OF TIME STEP  117, STRESS PERIOD    4

end timestep


start timestep kper="4" kstp="118" mode="normal"

 UBDSV1 SAVING           STO-SS ON UNIT   1026 AT TIME STEP    118, STRESS PERIOD      4
 UBDSV1 SAVING           STO-SY ON UNIT   1026 AT TIME STEP    118, STRESS PERIOD      4
 UBDSV1 SAVING     FLOW-JA-FACE ON UNIT   1026 AT TIME STEP    118, STRESS PERIOD      4
 UBDSV06 SAVING       DATA-SPDIS IN MODEL TRANSRIVER       PACKAGE NPF             CONNECTED TO MODEL TRANSRIVER       PACKAGE NPF              ON UNIT   1026 AT TIME STEP    118, STRESS PERIOD      4
 UBDSV06 SAVING              WEL IN MODEL TRANSRIVER       PACKAGE TRANSRIVER      CONNECTED TO MODEL TRANSRIVER       PACKAGE WEL-1            ON UNIT   1026 AT TIME STEP    118, STRESS PERIOD      4
 UBDSV06 SAVING              RIV IN MODEL TRANSRIVER       PACKAGE TRANSRIVER      CONNECTED TO MODEL TRANSRIVER       PACKAGE RIV-1            ON UNIT   1026 AT TIME STEP    118, STRESS PERIOD      4
 UBDSV06 SAVING              CHD IN MODEL TRANSRIVER       PACKAGE TRANSRIVER      CONNECTED TO MODEL TRANSRIVER       PACKAGE CHD-1            ON UNIT   1026 AT TIME STEP    118, STRESS PERIOD      4

 HEAD WILL BE SAVED ON UNIT 1027 AT END OF TIME STEP  118, STRESS PERIOD    4

end timestep


start timestep kper="4" kstp="119" mode="normal"

 UBDSV1 SAVING           STO-SS ON UNIT   1026 AT TIME STEP    119, STRESS PERIOD      4
 UBDSV1 SAVING           STO-SY ON UNIT   1026 AT TIME STEP    119, STRESS PERIOD      4
 UBDSV1 SAVING     FLOW-JA-FACE ON UNIT   1026 AT TIME STEP    119, STRESS PERIOD      4
 UBDSV06 SAVING       DATA-SPDIS IN MODEL TRANSRIVER       PACKAGE NPF             CONNECTED TO MODEL TRANSRIVER       PACKAGE NPF              ON UNIT   1026 AT TIME STEP    119, STRESS PERIOD      4
 UBDSV06 SAVING              WEL IN MODEL TRANSRIVER       PACKAGE TRANSRIVER      CONNECTED TO MODEL TRANSRIVER       PACKAGE WEL-1            ON UNIT   1026 AT TIME STEP    119, STRESS PERIOD      4
 UBDSV06 SAVING              RIV IN MODEL TRANSRIVER       PACKAGE TRANSRIVER      CONNECTED TO MODEL TRANSRIVER       PACKAGE RIV-1            ON UNIT   1026 AT TIME STEP    119, STRESS PERIOD      4
 UBDSV06 SAVING              CHD IN MODEL TRANSRIVER       PACKAGE TRANSRIVER      CONNECTED TO MODEL TRANSRIVER       PACKAGE CHD-1            ON UNIT   1026 AT TIME STEP    119, STRESS PERIOD      4

 HEAD WILL BE SAVED ON UNIT 1027 AT END OF TIME STEP  119, STRESS PERIOD    4

end timestep


start timestep kper="4" kstp="120" mode="normal"

 UBDSV1 SAVING           STO-SS ON UNIT   1026 AT TIME STEP    120, STRESS PERIOD      4
 UBDSV1 SAVING           STO-SY ON UNIT   1026 AT TIME STEP    120, STRESS PERIOD      4
 UBDSV1 SAVING     FLOW-JA-FACE ON UNIT   1026 AT TIME STEP    120, STRESS PERIOD      4
 UBDSV06 SAVING       DATA-SPDIS IN MODEL TRANSRIVER       PACKAGE NPF             CONNECTED TO MODEL TRANSRIVER       PACKAGE NPF              ON UNIT   1026 AT TIME STEP    120, STRESS PERIOD      4
 UBDSV06 SAVING              WEL IN MODEL TRANSRIVER       PACKAGE TRANSRIVER      CONNECTED TO MODEL TRANSRIVER       PACKAGE WEL-1            ON UNIT   1026 AT TIME STEP    120, STRESS PERIOD      4
 UBDSV06 SAVING              RIV IN MODEL TRANSRIVER       PACKAGE TRANSRIVER      CONNECTED TO MODEL TRANSRIVER       PACKAGE RIV-1            ON UNIT   1026 AT TIME STEP    120, STRESS PERIOD      4
 UBDSV06 SAVING              CHD IN MODEL TRANSRIVER       PACKAGE TRANSRIVER      CONNECTED TO MODEL TRANSRIVER       PACKAGE CHD-1            ON UNIT   1026 AT TIME STEP    120, STRESS PERIOD      4

 HEAD WILL BE SAVED ON UNIT 1027 AT END OF TIME STEP  120, STRESS PERIOD    4


  VOLUME BUDGET FOR ENTIRE MODEL AT END OF TIME STEP  120, STRESS PERIOD   4
  ---------------------------------------------------------------------------------------------------

     CUMULATIVE VOLUME      L**3       RATES FOR THIS TIME STEP      L**3/T          PACKAGE NAME    
     ------------------                 ------------------------                     ----------------

           IN:                                      IN:
           ---                                      ---
              STO-SS =       2.6669E-03                STO-SS =       3.1342E-05     STORAGE                          
              STO-SY =          20.1529                STO-SY =           0.2806     STORAGE                          
                 WEL =           0.0000                   WEL =           0.0000     WEL-1                            
                 RIV =          63.0351                   RIV =           2.0334     RIV-1                            
                 CHD =           0.0000                   CHD =           0.0000     CHD-1                            

            TOTAL IN =          83.1907              TOTAL IN =           2.3141

          OUT:                                     OUT:
          ----                                     ----
              STO-SS =       3.1860E-04                STO-SS =       1.1337E-05     STORAGE                          
              STO-SY =           1.8698                STO-SY =           0.1213     STORAGE                          
                 WEL =          18.0000                   WEL =           0.1500     WEL-1                            
                 RIV =           0.0000                   RIV =           0.0000     RIV-1                            
                 CHD =          63.3305                   CHD =           2.0428     CHD-1                            

           TOTAL OUT =          83.2006             TOTAL OUT =           2.3141

            IN - OUT =      -9.9085E-03              IN - OUT =      -5.7994E-06

 PERCENT DISCREPANCY =          -0.01     PERCENT DISCREPANCY =          -0.00




         TIME SUMMARY AT END OF TIME STEP  120 IN STRESS PERIOD    4
                    SECONDS     MINUTES      HOURS       DAYS        YEARS
                    -----------------------------------------------------------
   TIME STEP LENGTH  7200.0      120.00      2.0000     8.33333E-02 2.28154E-04
 STRESS PERIOD TIME 8.64000E+05  14400.      240.00      10.000     2.73785E-02
         TOTAL TIME 2.67840E+06  44640.      744.00      31.000     8.48734E-02


end timestep

